# generated using pymatgen
data_CaMn2(PO5)2
_symmetry_space_group_name_H-M   'P 1'
_cell_length_a   6.86996610
_cell_length_b   6.86996548
_cell_length_c   8.88156886
_cell_angle_alpha   102.77141890
_cell_angle_beta   102.77142330
_cell_angle_gamma   115.36713914
_symmetry_Int_Tables_number   1
_chemical_formula_structural   CaMn2(PO5)2
_chemical_formula_sum   'Ca2 Mn4 P4 O20'
_cell_volume   344.86174029
_cell_formula_units_Z   2
loop_
 _symmetry_equiv_pos_site_id
 _symmetry_equiv_pos_as_xyz
  1  'x, y, z'
loop_
 _atom_site_type_symbol
 _atom_site_label
 _atom_site_symmetry_multiplicity
 _atom_site_fract_x
 _atom_site_fract_y
 _atom_site_fract_z
 _atom_site_occupancy
  Ca  Ca0  1  0.496196  0.996196  0.500000  1
  Ca  Ca1  1  0.246196  0.246196  1.000000  1
  Mn  Mn2  1  0.871833  0.618828  0.250908  1
  Mn  Mn3  1  0.367920  0.620925  0.749092  1
  Mn  Mn4  1  0.870925  0.117920  0.249092  1
  Mn  Mn5  1  0.868828  0.621833  0.750908  1
  P  P6  1  0.036915  0.036711  0.583688  1
  P  P7  1  0.703227  0.203023  0.916312  1
  P  P8  1  0.453023  0.453227  0.416312  1
  P  P9  1  0.286711  0.786915  0.083688  1
  O  O10  1  0.573092  0.554892  0.301743  1
  O  O11  1  0.660174  0.663754  0.833980  1
  O  O12  1  0.320543  0.605435  0.970318  1
  O  O13  1  0.804892  0.323092  0.801743  1
  O  O14  1  0.220624  0.235480  0.300317  1
  O  O15  1  0.415556  0.633884  0.527167  1
  O  O16  1  0.076194  0.579772  0.666020  1
  O  O17  1  0.829772  0.826194  0.166020  1
  O  O18  1  0.913754  0.410174  0.333980  1
  O  O19  1  0.170307  0.685164  0.199683  1
  O  O20  1  0.253150  0.271351  0.698257  1
  O  O21  1  0.485480  0.970624  0.800317  1
  O  O22  1  0.935164  0.920307  0.699683  1
  O  O23  1  0.138390  0.856718  0.972833  1
  O  O24  1  0.106718  0.888390  0.472833  1
  O  O25  1  0.883884  0.165556  0.027167  1
  O  O26  1  0.855435  0.070543  0.470318  1
  O  O27  1  0.635117  0.350226  0.029682  1
  O  O28  1  0.521351  0.003150  0.198257  1
  O  O29  1  0.600226  0.385117  0.529682  1
