# generated using pymatgen
data_YMn(WO4)2
_symmetry_space_group_name_H-M   'P 1'
_cell_length_a   5.19758971
_cell_length_b   5.92434377
_cell_length_c   6.37376087
_cell_angle_alpha   108.55415248
_cell_angle_beta   118.40126801
_cell_angle_gamma   90.18317723
_symmetry_Int_Tables_number   1
_chemical_formula_structural   YMn(WO4)2
_chemical_formula_sum   'Y1 Mn1 W2 O8'
_cell_volume   160.83175815
_cell_formula_units_Z   1
loop_
 _symmetry_equiv_pos_site_id
 _symmetry_equiv_pos_as_xyz
  1  'x, y, z'
loop_
 _atom_site_type_symbol
 _atom_site_label
 _atom_site_symmetry_multiplicity
 _atom_site_fract_x
 _atom_site_fract_y
 _atom_site_fract_z
 _atom_site_occupancy
  Y  Y0  1  0.622279  0.713619  0.102933  1
  Mn  Mn1  1  0.144972  0.261815  0.113681  1
  W  W2  1  0.878203  0.390381  0.589315  1
  W  W3  1  0.387315  0.054518  0.612814  1
  O  O4  1  0.129756  0.673249  0.838824  1
  O  O5  1  0.578831  0.486088  0.310920  1
  O  O6  1  0.167121  0.186991  0.787428  1
  O  O7  1  0.568872  0.049937  0.398915  1
  O  O8  1  0.644083  0.945506  0.860804  1
  O  O9  1  0.116742  0.777449  0.373302  1
  O  O10  1  0.080518  0.246585  0.394916  1
  O  O11  1  0.677305  0.392355  0.812245  1
