# generated using pymatgen
data_BiWO5
_symmetry_space_group_name_H-M   'P 1'
_cell_length_a   6.23699552
_cell_length_b   12.06761891
_cell_length_c   16.14114363
_cell_angle_alpha   90.00000000
_cell_angle_beta   90.00000000
_cell_angle_gamma   90.00000000
_symmetry_Int_Tables_number   1
_chemical_formula_structural   BiWO5
_chemical_formula_sum   'Bi8 W8 O40'
_cell_volume   1214.87423327
_cell_formula_units_Z   8
loop_
 _symmetry_equiv_pos_site_id
 _symmetry_equiv_pos_as_xyz
  1  'x, y, z'
loop_
 _atom_site_type_symbol
 _atom_site_label
 _atom_site_symmetry_multiplicity
 _atom_site_fract_x
 _atom_site_fract_y
 _atom_site_fract_z
 _atom_site_occupancy
  Bi  Bi0  1  0.927126  0.820189  0.208183  1
  Bi  Bi1  1  0.072874  0.179811  0.791817  1
  Bi  Bi2  1  0.572874  0.320189  0.791817  1
  Bi  Bi3  1  0.072874  0.679811  0.708183  1
  Bi  Bi4  1  0.427126  0.179811  0.291817  1
  Bi  Bi5  1  0.427126  0.679811  0.208183  1
  Bi  Bi6  1  0.572874  0.820189  0.708183  1
  Bi  Bi7  1  0.927126  0.320189  0.291817  1
  W  W8  1  0.979275  0.397415  0.614686  1
  W  W9  1  0.520725  0.897415  0.385314  1
  W  W10  1  0.020725  0.602585  0.385314  1
  W  W11  1  0.479275  0.102585  0.614686  1
  W  W12  1  0.020725  0.102585  0.114686  1
  W  W13  1  0.979275  0.897415  0.885314  1
  W  W14  1  0.520725  0.397415  0.114686  1
  W  W15  1  0.479275  0.602585  0.885314  1
  O  O16  1  0.886288  0.297581  0.701313  1
  O  O17  1  0.253595  0.044841  0.071349  1
  O  O18  1  0.246405  0.544841  0.928651  1
  O  O19  1  0.230586  0.796363  0.150692  1
  O  O20  1  0.269414  0.296363  0.849308  1
  O  O21  1  0.886288  0.797581  0.798687  1
  O  O22  1  0.269414  0.796363  0.650692  1
  O  O23  1  0.613712  0.797581  0.298687  1
  O  O24  1  0.253595  0.544841  0.428651  1
  O  O25  1  0.113712  0.702419  0.298687  1
  O  O26  1  0.613712  0.297581  0.201313  1
  O  O27  1  0.625079  0.174173  0.538591  1
  O  O28  1  0.753595  0.955159  0.428651  1
  O  O29  1  0.769414  0.703637  0.650692  1
  O  O30  1  0.150542  0.009912  0.837586  1
  O  O31  1  0.753595  0.455159  0.071349  1
  O  O32  1  0.113712  0.202419  0.201313  1
  O  O33  1  0.730586  0.203637  0.349308  1
  O  O34  1  0.125079  0.825827  0.961409  1
  O  O35  1  0.246405  0.044841  0.571349  1
  O  O36  1  0.374921  0.825827  0.461409  1
  O  O37  1  0.849458  0.990088  0.162414  1
  O  O38  1  0.769414  0.203637  0.849308  1
  O  O39  1  0.650542  0.990088  0.662414  1
  O  O40  1  0.374921  0.325827  0.038591  1
  O  O41  1  0.125079  0.325827  0.538591  1
  O  O42  1  0.746405  0.455159  0.571349  1
  O  O43  1  0.746405  0.955159  0.928651  1
  O  O44  1  0.650542  0.490088  0.837586  1
  O  O45  1  0.874921  0.674173  0.461409  1
  O  O46  1  0.874921  0.174173  0.038591  1
  O  O47  1  0.625079  0.674173  0.961409  1
  O  O48  1  0.849458  0.490088  0.337586  1
  O  O49  1  0.730586  0.703637  0.150692  1
  O  O50  1  0.230586  0.296363  0.349308  1
  O  O51  1  0.150542  0.509912  0.662414  1
  O  O52  1  0.349458  0.509912  0.162414  1
  O  O53  1  0.386288  0.202419  0.701313  1
  O  O54  1  0.349458  0.009912  0.337586  1
  O  O55  1  0.386288  0.702419  0.798687  1
