# generated using pymatgen
data_Ca(FeO2)2
_symmetry_space_group_name_H-M   'P 1'
_cell_length_a   5.21908658
_cell_length_b   6.01486455
_cell_length_c   11.23973208
_cell_angle_alpha   89.98408495
_cell_angle_beta   89.95299452
_cell_angle_gamma   89.99890485
_symmetry_Int_Tables_number   1
_chemical_formula_structural   Ca(FeO2)2
_chemical_formula_sum   'Ca4 Fe8 O16'
_cell_volume   352.83864873
_cell_formula_units_Z   4
loop_
 _symmetry_equiv_pos_site_id
 _symmetry_equiv_pos_as_xyz
  1  'x, y, z'
loop_
 _atom_site_type_symbol
 _atom_site_label
 _atom_site_symmetry_multiplicity
 _atom_site_fract_x
 _atom_site_fract_y
 _atom_site_fract_z
 _atom_site_occupancy
  Ca  Ca0  1  0.854620  0.249905  0.749986  1
  Ca  Ca1  1  0.145383  0.750093  0.250023  1
  Ca  Ca2  1  0.535975  0.252051  0.250070  1
  Ca  Ca3  1  0.464023  0.747961  0.749921  1
  Fe  Fe4  1  0.505137  0.750077  0.485107  1
  Fe  Fe5  1  0.505107  0.750320  0.014638  1
  Fe  Fe6  1  0.494840  0.249918  0.514893  1
  Fe  Fe7  1  0.494900  0.249694  0.985350  1
  Fe  Fe8  1  0.000016  0.499841  0.500020  1
  Fe  Fe9  1  0.000013  0.000020  -0.000001  1
  Fe  Fe10  1  0.000002  0.000097  0.500014  1
  Fe  Fe11  1  0.000002  0.500022  0.999992  1
  O  O12  1  0.842468  0.749701  0.401504  1
  O  O13  1  0.842476  0.750250  0.098437  1
  O  O14  1  0.157534  0.250278  0.598523  1
  O  O15  1  0.157537  0.249768  0.901557  1
  O  O16  1  0.181732  0.750063  0.589505  1
  O  O17  1  0.181279  0.750068  0.910350  1
  O  O18  1  0.818232  0.249909  0.410482  1
  O  O19  1  0.818735  0.249959  0.089643  1
  O  O20  1  0.664772  0.502572  0.604189  1
  O  O21  1  0.664975  0.996755  0.895926  1
  O  O22  1  0.335174  0.003462  0.395885  1
  O  O23  1  0.335399  0.497248  0.104090  1
  O  O24  1  0.335200  0.497398  0.395815  1
  O  O25  1  0.335045  0.003256  0.104065  1
  O  O26  1  0.664807  0.996546  0.604118  1
  O  O27  1  0.664616  0.502766  0.895898  1
