# generated using pymatgen
data_MgCu(Si2O5)2
_symmetry_space_group_name_H-M   'P 1'
_cell_length_a   7.23679657
_cell_length_b   7.23679657
_cell_length_c   14.86892390
_cell_angle_alpha   90.00000000
_cell_angle_beta   90.00000000
_cell_angle_gamma   90.00000000
_symmetry_Int_Tables_number   1
_chemical_formula_structural   MgCu(Si2O5)2
_chemical_formula_sum   'Mg4 Cu4 Si16 O40'
_cell_volume   778.70375306
_cell_formula_units_Z   4
loop_
 _symmetry_equiv_pos_site_id
 _symmetry_equiv_pos_as_xyz
  1  'x, y, z'
loop_
 _atom_site_type_symbol
 _atom_site_label
 _atom_site_symmetry_multiplicity
 _atom_site_fract_x
 _atom_site_fract_y
 _atom_site_fract_z
 _atom_site_occupancy
  Mg  Mg0  1  0.250000  0.750000  0.500000  1
  Mg  Mg1  1  0.750000  0.250000  0.500000  1
  Mg  Mg2  1  0.750000  0.250000  -0.000000  1
  Mg  Mg3  1  0.250000  0.750000  -0.000000  1
  Cu  Cu4  1  0.250000  0.250000  0.572725  1
  Cu  Cu5  1  0.750000  0.750000  0.927275  1
  Cu  Cu6  1  0.750000  0.750000  0.427275  1
  Cu  Cu7  1  0.250000  0.250000  0.072725  1
  Si  Si8  1  0.918742  0.492449  0.643930  1
  Si  Si9  1  0.581258  0.007551  0.643930  1
  Si  Si10  1  0.992449  0.418742  0.856070  1
  Si  Si11  1  0.492449  0.581258  0.643930  1
  Si  Si12  1  0.007551  0.918742  0.643930  1
  Si  Si13  1  0.081258  0.992449  0.856070  1
  Si  Si14  1  0.418742  0.507551  0.856070  1
  Si  Si15  1  0.507551  0.081258  0.856070  1
  Si  Si16  1  0.081258  0.507551  0.356070  1
  Si  Si17  1  0.418742  0.992449  0.356070  1
  Si  Si18  1  0.007551  0.581258  0.143930  1
  Si  Si19  1  0.507551  0.418742  0.356070  1
  Si  Si20  1  0.992449  0.081258  0.356070  1
  Si  Si21  1  0.918742  0.007551  0.143930  1
  Si  Si22  1  0.581258  0.492449  0.143930  1
  Si  Si23  1  0.492449  0.918742  0.143930  1
  O  O24  1  0.989524  0.334074  0.575301  1
  O  O25  1  0.510476  0.165926  0.575301  1
  O  O26  1  0.834074  0.489524  0.924699  1
  O  O27  1  0.334074  0.510476  0.575301  1
  O  O28  1  0.165926  0.989524  0.575301  1
  O  O29  1  0.010476  0.834074  0.924699  1
  O  O30  1  0.489524  0.665926  0.924699  1
  O  O31  1  0.665926  0.010476  0.924699  1
  O  O32  1  0.010476  0.665926  0.424699  1
  O  O33  1  0.489524  0.834074  0.424699  1
  O  O34  1  0.165926  0.510476  0.075301  1
  O  O35  1  0.665926  0.489524  0.424699  1
  O  O36  1  0.834074  0.010476  0.424699  1
  O  O37  1  0.989524  0.165926  0.075301  1
  O  O38  1  0.510476  0.334074  0.075301  1
  O  O39  1  0.996054  0.303353  0.377480  1
  O  O40  1  0.334074  0.989524  0.075301  1
  O  O41  1  0.496054  0.803353  0.622520  1
  O  O42  1  0.196647  0.503946  0.877480  1
  O  O43  1  0.696647  0.496054  0.622520  1
  O  O44  1  0.803353  0.003946  0.622520  1
  O  O45  1  0.996054  0.196647  0.877480  1
  O  O46  1  0.503946  0.303353  0.877480  1
  O  O47  1  0.303353  0.996054  0.877480  1
  O  O48  1  0.450243  0.950243  0.250000  1
  O  O49  1  0.549757  0.450243  0.250000  1
  O  O50  1  0.950243  0.049758  0.250000  1
  O  O51  1  0.049758  0.549757  0.250000  1
  O  O52  1  0.549757  0.049758  0.750000  1
  O  O53  1  0.450243  0.549757  0.750000  1
  O  O54  1  0.049758  0.950243  0.750000  1
  O  O55  1  0.950243  0.450243  0.750000  1
  O  O56  1  0.696647  0.003946  0.122520  1
  O  O57  1  0.496054  0.696647  0.122520  1
  O  O58  1  0.003946  0.803353  0.122520  1
  O  O59  1  0.196647  0.996054  0.377480  1
  O  O60  1  0.303353  0.503946  0.377480  1
  O  O61  1  0.803353  0.496054  0.122520  1
  O  O62  1  0.503946  0.196647  0.377480  1
  O  O63  1  0.003946  0.696647  0.622520  1
