# generated using pymatgen
data_MgBiWO5
_symmetry_space_group_name_H-M   'P 1'
_cell_length_a   5.43302671
_cell_length_b   8.01557797
_cell_length_c   11.88723177
_cell_angle_alpha   90.00000000
_cell_angle_beta   90.00000000
_cell_angle_gamma   104.66131644
_symmetry_Int_Tables_number   1
_chemical_formula_structural   MgBiWO5
_chemical_formula_sum   'Mg4 Bi4 W4 O20'
_cell_volume   500.81916651
_cell_formula_units_Z   4
loop_
 _symmetry_equiv_pos_site_id
 _symmetry_equiv_pos_as_xyz
  1  'x, y, z'
loop_
 _atom_site_type_symbol
 _atom_site_label
 _atom_site_symmetry_multiplicity
 _atom_site_fract_x
 _atom_site_fract_y
 _atom_site_fract_z
 _atom_site_occupancy
  Mg  Mg0  1  0.608446  0.173299  0.920209  1
  Mg  Mg1  1  0.391554  0.826701  0.079791  1
  Mg  Mg2  1  0.891554  0.326701  0.420209  1
  Mg  Mg3  1  0.108446  0.673299  0.579791  1
  Bi  Bi4  1  0.099010  0.154328  0.102996  1
  Bi  Bi5  1  0.900991  0.845672  0.897004  1
  Bi  Bi6  1  0.599009  0.654328  0.397004  1
  Bi  Bi7  1  0.400991  0.345672  0.602996  1
  W  W8  1  0.765558  0.976344  0.638075  1
  W  W9  1  0.234442  0.023656  0.361925  1
  W  W10  1  0.734442  0.523656  0.138075  1
  W  W11  1  0.265558  0.476344  0.861925  1
  O  O12  1  0.547851  0.324422  0.065629  1
  O  O13  1  0.985089  0.331897  0.927861  1
  O  O14  1  0.517568  0.661713  0.186825  1
  O  O15  1  0.755852  0.513466  0.528876  1
  O  O16  1  0.781596  0.478042  0.295812  1
  O  O17  1  0.281596  0.978042  0.204188  1
  O  O18  1  0.485089  0.831897  0.572139  1
  O  O19  1  0.514911  0.168103  0.427861  1
  O  O20  1  0.244148  0.486534  0.471124  1
  O  O21  1  0.952149  0.175578  0.565629  1
  O  O22  1  0.218404  0.521958  0.704188  1
  O  O23  1  0.452149  0.675578  0.934371  1
  O  O24  1  0.047851  0.824422  0.434371  1
  O  O25  1  0.718404  0.021958  0.795812  1
  O  O26  1  0.744148  0.986534  0.028876  1
  O  O27  1  0.255852  0.013466  0.971124  1
  O  O28  1  0.482432  0.338287  0.813175  1
  O  O29  1  0.014911  0.668103  0.072139  1
  O  O30  1  0.982432  0.838287  0.686825  1
  O  O31  1  0.017568  0.161713  0.313175  1
