# generated using pymatgen
data_TaZn2SnO6
_symmetry_space_group_name_H-M   'P 1'
_cell_length_a   5.49090767
_cell_length_b   5.49559182
_cell_length_c   7.89917673
_cell_angle_alpha   90.00000000
_cell_angle_beta   90.00000000
_cell_angle_gamma   88.02506647
_symmetry_Int_Tables_number   1
_chemical_formula_structural   TaZn2SnO6
_chemical_formula_sum   'Ta2 Zn4 Sn2 O12'
_cell_volume   238.22228838
_cell_formula_units_Z   2
loop_
 _symmetry_equiv_pos_site_id
 _symmetry_equiv_pos_as_xyz
  1  'x, y, z'
loop_
 _atom_site_type_symbol
 _atom_site_label
 _atom_site_symmetry_multiplicity
 _atom_site_fract_x
 _atom_site_fract_y
 _atom_site_fract_z
 _atom_site_occupancy
  Ta  Ta0  1  0.000000  0.500000  0.000000  1
  Ta  Ta1  1  0.000000  0.500000  0.500000  1
  Zn  Zn2  1  0.980297  0.989309  0.250000  1
  Zn  Zn3  1  0.510022  0.472210  0.250000  1
  Zn  Zn4  1  0.489978  0.527790  0.750000  1
  Zn  Zn5  1  0.019703  0.010691  0.750000  1
  Sn  Sn6  1  0.500000  0.000000  0.000000  1
  Sn  Sn7  1  0.500000  0.000000  0.500000  1
  O  O8  1  0.856155  0.821440  0.565461  1
  O  O9  1  0.310037  0.651476  0.429859  1
  O  O10  1  0.143845  0.178560  0.434539  1
  O  O11  1  0.689963  0.348524  0.929859  1
  O  O12  1  0.124858  0.430393  0.750000  1
  O  O13  1  0.689963  0.348524  0.570141  1
  O  O14  1  0.310037  0.651476  0.070141  1
  O  O15  1  0.856155  0.821440  0.934539  1
  O  O16  1  0.618663  0.096161  0.250000  1
  O  O17  1  0.143845  0.178560  0.065461  1
  O  O18  1  0.381337  0.903839  0.750000  1
  O  O19  1  0.875142  0.569607  0.250000  1
