# generated using pymatgen
data_TiZnCo(PO4)3
_symmetry_space_group_name_H-M   'P 1'
_cell_length_a   8.50779339
_cell_length_b   8.50779262
_cell_length_c   8.50779297
_cell_angle_alpha   60.91590647
_cell_angle_beta   60.91590996
_cell_angle_gamma   60.91591283
_symmetry_Int_Tables_number   1
_chemical_formula_structural   TiZnCo(PO4)3
_chemical_formula_sum   'Ti2 Zn2 Co2 P6 O24'
_cell_volume   444.43615130
_cell_formula_units_Z   2
loop_
 _symmetry_equiv_pos_site_id
 _symmetry_equiv_pos_as_xyz
  1  'x, y, z'
loop_
 _atom_site_type_symbol
 _atom_site_label
 _atom_site_symmetry_multiplicity
 _atom_site_fract_x
 _atom_site_fract_y
 _atom_site_fract_z
 _atom_site_occupancy
  Ti  Ti0  1  0.144163  0.144163  0.144163  1
  Ti  Ti1  1  0.644163  0.644163  0.644163  1
  Zn  Zn2  1  0.995473  0.995473  0.995473  1
  Zn  Zn3  1  0.495473  0.495473  0.495473  1
  Co  Co4  1  0.353453  0.353453  0.353453  1
  Co  Co5  1  0.853453  0.853453  0.853453  1
  P  P6  1  0.045848  0.456191  0.751238  1
  P  P7  1  0.456191  0.751238  0.045848  1
  P  P8  1  0.751238  0.045848  0.456191  1
  P  P9  1  0.251238  0.956191  0.545848  1
  P  P10  1  0.545848  0.251238  0.956191  1
  P  P11  1  0.956191  0.545848  0.251238  1
  O  O12  1  0.111257  0.506000  0.319804  1
  O  O13  1  0.319804  0.111257  0.506000  1
  O  O14  1  0.054739  0.259133  0.913794  1
  O  O15  1  0.506000  0.319804  0.111257  1
  O  O16  1  0.006000  0.611257  0.819804  1
  O  O17  1  0.239575  0.438897  0.589099  1
  O  O18  1  0.259133  0.913794  0.054739  1
  O  O19  1  0.438897  0.589099  0.239575  1
  O  O20  1  0.187480  0.003990  0.379863  1
  O  O21  1  0.589099  0.239575  0.438897  1
  O  O22  1  0.089099  0.938897  0.739575  1
  O  O23  1  0.379863  0.187480  0.003990  1
  O  O24  1  0.611257  0.819804  0.006000  1
  O  O25  1  0.913794  0.054739  0.259133  1
  O  O26  1  0.413794  0.759133  0.554739  1
  O  O27  1  0.819804  0.006000  0.611257  1
  O  O28  1  0.554739  0.413794  0.759133  1
  O  O29  1  0.739575  0.089099  0.938897  1
  O  O30  1  0.759133  0.554739  0.413794  1
  O  O31  1  0.003990  0.379863  0.187480  1
  O  O32  1  0.503990  0.687480  0.879863  1
  O  O33  1  0.938897  0.739575  0.089099  1
  O  O34  1  0.687480  0.879863  0.503990  1
  O  O35  1  0.879863  0.503990  0.687480  1
