# generated using pymatgen
data_CaCr2O4
_symmetry_space_group_name_H-M   'P 1'
_cell_length_a   3.03744869
_cell_length_b   9.17209322
_cell_length_c   10.76984550
_cell_angle_alpha   90.00000000
_cell_angle_beta   90.00000000
_cell_angle_gamma   90.00000000
_symmetry_Int_Tables_number   1
_chemical_formula_structural   CaCr2O4
_chemical_formula_sum   'Ca4 Cr8 O16'
_cell_volume   300.04533818
_cell_formula_units_Z   4
loop_
 _symmetry_equiv_pos_site_id
 _symmetry_equiv_pos_as_xyz
  1  'x, y, z'
loop_
 _atom_site_type_symbol
 _atom_site_label
 _atom_site_symmetry_multiplicity
 _atom_site_fract_x
 _atom_site_fract_y
 _atom_site_fract_z
 _atom_site_occupancy
  Ca  Ca0  1  0.749999  0.240890  0.341491  1
  Ca  Ca1  1  0.250000  0.759111  0.658509  1
  Ca  Ca2  1  0.749999  0.740890  0.158509  1
  Ca  Ca3  1  0.250000  0.259111  0.841491  1
  Cr  Cr4  1  0.250000  0.417002  0.101455  1
  Cr  Cr5  1  0.749999  0.082998  0.601455  1
  Cr  Cr6  1  0.250000  0.917003  0.398545  1
  Cr  Cr7  1  0.749999  0.582998  0.898545  1
  Cr  Cr8  1  0.749999  0.561319  0.387153  1
  Cr  Cr9  1  0.250000  0.438681  0.612847  1
  Cr  Cr10  1  0.749999  0.061318  0.112847  1
  Cr  Cr11  1  0.250000  0.938681  0.887153  1
  O  O12  1  0.250000  0.919011  0.074197  1
  O  O13  1  0.749999  0.080988  0.925803  1
  O  O14  1  0.250000  0.419011  0.425803  1
  O  O15  1  0.749999  0.580989  0.574197  1
  O  O16  1  0.250000  0.026053  0.714118  1
  O  O17  1  0.749999  0.973946  0.285882  1
  O  O18  1  0.250000  0.526054  0.785882  1
  O  O19  1  0.749999  0.473946  0.214118  1
  O  O20  1  0.250000  0.618151  0.023833  1
  O  O21  1  0.749999  0.381850  0.976167  1
  O  O22  1  0.250000  0.118150  0.476167  1
  O  O23  1  0.749999  0.881849  0.523833  1
  O  O24  1  0.749999  0.797039  0.838043  1
  O  O25  1  0.250000  0.202961  0.161957  1
  O  O26  1  0.250000  0.702961  0.338043  1
  O  O27  1  0.749999  0.297038  0.661957  1
