# generated using pymatgen
data_Ca(MoO2)2
_symmetry_space_group_name_H-M   'P 1'
_cell_length_a   5.60515803
_cell_length_b   6.46603066
_cell_length_c   11.23574013
_cell_angle_alpha   89.93281627
_cell_angle_beta   89.99359031
_cell_angle_gamma   89.99606492
_symmetry_Int_Tables_number   1
_chemical_formula_structural   Ca(MoO2)2
_chemical_formula_sum   'Ca4 Mo8 O16'
_cell_volume   407.21803570
_cell_formula_units_Z   4
loop_
 _symmetry_equiv_pos_site_id
 _symmetry_equiv_pos_as_xyz
  1  'x, y, z'
loop_
 _atom_site_type_symbol
 _atom_site_label
 _atom_site_symmetry_multiplicity
 _atom_site_fract_x
 _atom_site_fract_y
 _atom_site_fract_z
 _atom_site_occupancy
  Ca  Ca0  1  0.850989  0.248578  0.750172  1
  Ca  Ca1  1  0.148836  0.748854  0.250181  1
  Ca  Ca2  1  0.532409  0.248049  0.249807  1
  Ca  Ca3  1  0.467093  0.748558  0.749942  1
  Mo  Mo4  1  0.511181  0.749662  0.485360  1
  Mo  Mo5  1  0.510930  0.750504  0.014570  1
  Mo  Mo6  1  0.489306  0.249810  0.514502  1
  Mo  Mo7  1  0.489090  0.250701  0.985259  1
  Mo  Mo8  1  -0.000053  0.500226  0.500616  1
  Mo  Mo9  1  -0.000213  0.000511  0.000212  1
  Mo  Mo10  1  0.000366  0.000043  0.499531  1
  Mo  Mo11  1  0.999681  0.500776  0.999964  1
  O  O12  1  0.854912  0.749733  0.396162  1
  O  O13  1  0.854310  0.750361  0.103875  1
  O  O14  1  0.145824  0.249318  0.604002  1
  O  O15  1  0.145322  0.250841  0.896007  1
  O  O16  1  0.191222  0.750655  0.590549  1
  O  O17  1  0.190558  0.750990  0.909455  1
  O  O18  1  0.809457  0.250794  0.409342  1
  O  O19  1  0.808702  0.250434  0.090528  1
  O  O20  1  0.663725  0.505097  0.605729  1
  O  O21  1  0.664921  0.994932  0.894765  1
  O  O22  1  0.335994  0.005628  0.394230  1
  O  O23  1  0.335347  0.494429  0.105161  1
  O  O24  1  0.334616  0.494146  0.395322  1
  O  O25  1  0.335569  0.006223  0.105201  1
  O  O26  1  0.665250  0.993640  0.604821  1
  O  O27  1  0.664656  0.506511  0.894731  1
