# generated using pymatgen
data_MgW2O7
_symmetry_space_group_name_H-M   'P 1'
_cell_length_a   6.62295401
_cell_length_b   6.37691924
_cell_length_c   8.96995788
_cell_angle_alpha   115.93894462
_cell_angle_beta   90.00000000
_cell_angle_gamma   90.00000000
_symmetry_Int_Tables_number   1
_chemical_formula_structural   MgW2O7
_chemical_formula_sum   'Mg2 W4 O14'
_cell_volume   340.67374159
_cell_formula_units_Z   2
loop_
 _symmetry_equiv_pos_site_id
 _symmetry_equiv_pos_as_xyz
  1  'x, y, z'
loop_
 _atom_site_type_symbol
 _atom_site_label
 _atom_site_symmetry_multiplicity
 _atom_site_fract_x
 _atom_site_fract_y
 _atom_site_fract_z
 _atom_site_occupancy
  Mg  Mg0  1  0.861755  0.529794  0.639455  1
  Mg  Mg1  1  0.361755  0.470206  0.360545  1
  W  W2  1  0.843645  0.317939  0.212568  1
  W  W3  1  0.343645  0.682061  0.787432  1
  W  W4  1  0.318844  0.871309  0.219492  1
  W  W5  1  0.818844  0.128691  0.780508  1
  O  O6  1  0.630941  0.038287  0.629831  1
  O  O7  1  0.130940  0.961713  0.370169  1
  O  O8  1  0.228529  0.543367  0.578685  1
  O  O9  1  0.728529  0.456633  0.421315  1
  O  O10  1  0.981028  0.319433  0.731766  1
  O  O11  1  0.481028  0.680567  0.268234  1
  O  O12  1  0.592107  0.557382  0.759487  1
  O  O13  1  0.092107  0.442618  0.240513  1
  O  O14  1  0.945258  0.865579  0.765162  1
  O  O15  1  0.445258  0.134421  0.234838  1
  O  O16  1  0.734536  0.306338  0.008666  1
  O  O17  1  0.234536  0.693662  0.991334  1
  O  O18  1  0.888415  0.025713  0.161452  1
  O  O19  1  0.388415  0.974287  0.838548  1
