# generated using pymatgen
data_MgSnO2
_symmetry_space_group_name_H-M   'P 1'
_cell_length_a   3.32740703
_cell_length_b   9.44870838
_cell_length_c   8.80098463
_cell_angle_alpha   91.22702084
_cell_angle_beta   74.42605733
_cell_angle_gamma   88.38632799
_symmetry_Int_Tables_number   1
_chemical_formula_structural   MgSnO2
_chemical_formula_sum   'Mg4 Sn4 O8'
_cell_volume   266.31483594
_cell_formula_units_Z   4
loop_
 _symmetry_equiv_pos_site_id
 _symmetry_equiv_pos_as_xyz
  1  'x, y, z'
loop_
 _atom_site_type_symbol
 _atom_site_label
 _atom_site_symmetry_multiplicity
 _atom_site_fract_x
 _atom_site_fract_y
 _atom_site_fract_z
 _atom_site_occupancy
  Mg  Mg0  1  0.537291  0.074726  0.196102  1
  Mg  Mg1  1  0.450256  0.906343  0.831227  1
  Mg  Mg2  1  0.041693  0.760909  0.174285  1
  Mg  Mg3  1  0.946786  0.219964  0.853215  1
  Sn  Sn4  1  0.677094  0.159538  0.538676  1
  Sn  Sn5  1  0.211385  0.389235  0.199069  1
  Sn  Sn6  1  0.779252  0.591585  0.828311  1
  Sn  Sn7  1  0.312530  0.820865  0.488752  1
  O  O8  1  0.751251  0.734372  0.643146  1
  O  O9  1  0.518153  0.285585  0.744171  1
  O  O10  1  0.470274  0.695186  0.283272  1
  O  O11  1  0.237476  0.246402  0.384401  1
  O  O12  1  0.944876  0.012319  0.827445  1
  O  O13  1  0.756928  0.260265  0.087620  1
  O  O14  1  0.041967  0.968783  0.200703  1
  O  O15  1  0.232771  0.720385  0.939459  1
