# generated using pymatgen
data_ZnMo3P3O13
_symmetry_space_group_name_H-M   'P 1'
_cell_length_a   6.66190602
_cell_length_b   7.74445284
_cell_length_c   10.80212889
_cell_angle_alpha   99.46085731
_cell_angle_beta   90.00000000
_cell_angle_gamma   90.00000000
_symmetry_Int_Tables_number   1
_chemical_formula_structural   ZnMo3P3O13
_chemical_formula_sum   'Zn2 Mo6 P6 O26'
_cell_volume   549.73176849
_cell_formula_units_Z   2
loop_
 _symmetry_equiv_pos_site_id
 _symmetry_equiv_pos_as_xyz
  1  'x, y, z'
loop_
 _atom_site_type_symbol
 _atom_site_label
 _atom_site_symmetry_multiplicity
 _atom_site_fract_x
 _atom_site_fract_y
 _atom_site_fract_z
 _atom_site_occupancy
  Zn  Zn0  1  0.750000  0.587408  0.149463  1
  Zn  Zn1  1  0.250000  0.412592  0.850537  1
  Mo  Mo2  1  0.250000  0.358296  0.209350  1
  Mo  Mo3  1  0.750000  0.641704  0.790650  1
  Mo  Mo4  1  0.250000  0.769487  0.442037  1
  Mo  Mo5  1  0.500000  -0.000000  -0.000000  1
  Mo  Mo6  1  0.750000  0.230513  0.557963  1
  Mo  Mo7  1  -0.000000  -0.000000  -0.000000  1
  P  P8  1  0.250000  0.217788  0.496358  1
  P  P9  1  0.750000  0.782212  0.503642  1
  P  P10  1  0.250000  0.734731  0.766715  1
  P  P11  1  0.750000  0.265269  0.233285  1
  P  P12  1  0.750000  0.316932  0.886807  1
  P  P13  1  0.250000  0.683068  0.113193  1
  O  O14  1  0.750000  0.354588  0.749667  1
  O  O15  1  0.565103  0.746824  0.416302  1
  O  O16  1  0.250000  0.795069  0.641452  1
  O  O17  1  0.550263  0.225736  0.908868  1
  O  O18  1  0.750000  0.649272  0.598074  1
  O  O19  1  0.750000  0.885335  0.898890  1
  O  O20  1  0.250000  0.350728  0.401926  1
  O  O21  1  0.050263  0.774264  0.091132  1
  O  O22  1  0.250000  0.030561  0.418858  1
  O  O23  1  0.750000  0.969439  0.581142  1
  O  O24  1  0.071810  0.612107  0.790631  1
  O  O25  1  0.250000  0.114665  0.101110  1
  O  O26  1  0.571810  0.387893  0.209369  1
  O  O27  1  0.750000  0.509057  0.964358  1
  O  O28  1  0.750000  0.204931  0.358548  1
  O  O29  1  0.449737  0.774264  0.091132  1
  O  O30  1  0.934897  0.746824  0.416302  1
  O  O31  1  0.434897  0.253176  0.583698  1
  O  O32  1  0.428190  0.612107  0.790631  1
  O  O33  1  0.250000  0.645412  0.250333  1
  O  O34  1  0.750000  0.100395  0.126233  1
  O  O35  1  0.250000  0.899605  0.873767  1
  O  O36  1  0.928190  0.387893  0.209369  1
  O  O37  1  0.949737  0.225736  0.908868  1
  O  O38  1  0.065103  0.253176  0.583698  1
  O  O39  1  0.250000  0.490943  0.035642  1
