# generated using pymatgen
data_Ca2VSbO6
_symmetry_space_group_name_H-M   'P 1'
_cell_length_a   5.51331794
_cell_length_b   5.68072705
_cell_length_c   7.75325537
_cell_angle_alpha   90.00000000
_cell_angle_beta   90.00000000
_cell_angle_gamma   90.04979974
_symmetry_Int_Tables_number   1
_chemical_formula_structural   Ca2VSbO6
_chemical_formula_sum   'Ca4 V2 Sb2 O12'
_cell_volume   242.82918660
_cell_formula_units_Z   2
loop_
 _symmetry_equiv_pos_site_id
 _symmetry_equiv_pos_as_xyz
  1  'x, y, z'
loop_
 _atom_site_type_symbol
 _atom_site_label
 _atom_site_symmetry_multiplicity
 _atom_site_fract_x
 _atom_site_fract_y
 _atom_site_fract_z
 _atom_site_occupancy
  Ca  Ca0  1  0.518738  0.563775  0.750000  1
  Ca  Ca1  1  0.481262  0.436225  0.250000  1
  Ca  Ca2  1  0.996121  0.043478  0.750000  1
  Ca  Ca3  1  0.003879  0.956522  0.250000  1
  V  V4  1  0.500000  0.000000  0.500000  1
  V  V5  1  0.500000  0.000000  0.000000  1
  Sb  Sb6  1  0.000000  0.500000  0.500000  1
  Sb  Sb7  1  0.000000  0.500000  0.000000  1
  O  O8  1  0.293374  0.692331  0.453037  1
  O  O9  1  0.189010  0.208305  0.049064  1
  O  O10  1  0.706626  0.307669  0.953037  1
  O  O11  1  0.810990  0.791695  0.549064  1
  O  O12  1  0.189010  0.208305  0.450936  1
  O  O13  1  0.810990  0.791695  0.950936  1
  O  O14  1  0.895745  0.534034  0.250000  1
  O  O15  1  0.293374  0.692331  0.046963  1
  O  O16  1  0.429475  0.979881  0.750000  1
  O  O17  1  0.706626  0.307669  0.546963  1
  O  O18  1  0.104255  0.465966  0.750000  1
  O  O19  1  0.570525  0.020119  0.250000  1
