# generated using pymatgen
data_Al2Cr2O7
_symmetry_space_group_name_H-M   'P 1'
_cell_length_a   6.71421146
_cell_length_b   6.71421148
_cell_length_c   6.71421092
_cell_angle_alpha   59.99999866
_cell_angle_beta   59.99999857
_cell_angle_gamma   59.99999677
_symmetry_Int_Tables_number   1
_chemical_formula_structural   Al2Cr2O7
_chemical_formula_sum   'Al4 Cr4 O14'
_cell_volume   214.02770447
_cell_formula_units_Z   2
loop_
 _symmetry_equiv_pos_site_id
 _symmetry_equiv_pos_as_xyz
  1  'x, y, z'
loop_
 _atom_site_type_symbol
 _atom_site_label
 _atom_site_symmetry_multiplicity
 _atom_site_fract_x
 _atom_site_fract_y
 _atom_site_fract_z
 _atom_site_occupancy
  Al  Al0  1  0.500000  0.000000  0.500000  1
  Al  Al1  1  0.000000  0.500000  0.500000  1
  Al  Al2  1  0.500000  0.500000  0.000000  1
  Al  Al3  1  0.500000  0.500000  0.500000  1
  Cr  Cr4  1  0.000000  0.500000  0.000000  1
  Cr  Cr5  1  0.500000  0.000000  0.000000  1
  Cr  Cr6  1  0.000000  0.000000  0.500000  1
  Cr  Cr7  1  0.000000  0.000000  0.000000  1
  O  O8  1  0.625000  0.625000  0.625000  1
  O  O9  1  0.375000  0.375000  0.375000  1
  O  O10  1  0.353897  0.896103  0.896103  1
  O  O11  1  0.103897  0.646103  0.646103  1
  O  O12  1  0.896103  0.353897  0.896103  1
  O  O13  1  0.896103  0.896103  0.353897  1
  O  O14  1  0.353897  0.353897  0.896103  1
  O  O15  1  0.353897  0.896103  0.353897  1
  O  O16  1  0.896103  0.353897  0.353897  1
  O  O17  1  0.646103  0.646103  0.103897  1
  O  O18  1  0.103897  0.103897  0.646103  1
  O  O19  1  0.646103  0.103897  0.103897  1
  O  O20  1  0.646103  0.103897  0.646103  1
  O  O21  1  0.103897  0.646103  0.103897  1
