# generated using pymatgen
data_Ca3V2(Si2O7)2
_symmetry_space_group_name_H-M   'P 1'
_cell_length_a   7.76370561
_cell_length_b   9.45104916
_cell_length_c   9.71546336
_cell_angle_alpha   64.29121700
_cell_angle_beta   66.44969600
_cell_angle_gamma   65.74914225
_symmetry_Int_Tables_number   1
_chemical_formula_structural   Ca3V2(Si2O7)2
_chemical_formula_sum   'Ca6 V4 Si8 O28'
_cell_volume   563.96201420
_cell_formula_units_Z   2
loop_
 _symmetry_equiv_pos_site_id
 _symmetry_equiv_pos_as_xyz
  1  'x, y, z'
loop_
 _atom_site_type_symbol
 _atom_site_label
 _atom_site_symmetry_multiplicity
 _atom_site_fract_x
 _atom_site_fract_y
 _atom_site_fract_z
 _atom_site_occupancy
  Ca  Ca0  1  0.835370  0.936527  0.463878  1
  Ca  Ca1  1  0.235775  0.563473  0.036122  1
  Ca  Ca2  1  0.764225  0.436527  0.963878  1
  Ca  Ca3  1  0.649905  0.250000  0.750000  1
  Ca  Ca4  1  0.164630  0.063473  0.536122  1
  Ca  Ca5  1  0.350095  0.750000  0.250000  1
  V  V6  1  0.202573  0.250000  0.750000  1
  V  V7  1  0.797427  0.750000  0.250000  1
  V  V8  1  0.000000  0.000000  0.000000  1
  V  V9  1  0.000000  0.500000  0.500000  1
  Si  Si10  1  0.465478  0.302862  0.347210  1
  Si  Si11  1  0.884448  0.802862  0.847210  1
  Si  Si12  1  0.467783  0.894214  0.853115  1
  Si  Si13  1  0.784889  0.394214  0.353115  1
  Si  Si14  1  0.115552  0.197138  0.152790  1
  Si  Si15  1  0.532217  0.105786  0.146885  1
  Si  Si16  1  0.215111  0.605786  0.646885  1
  Si  Si17  1  0.534522  0.697138  0.652790  1
  O  O18  1  0.121166  0.670384  0.498689  1
  O  O19  1  0.040226  0.580108  0.272983  1
  O  O20  1  0.539053  0.918520  0.190378  1
  O  O21  1  0.106684  0.080108  0.772983  1
  O  O22  1  0.734035  0.690026  0.506161  1
  O  O23  1  0.947836  0.370954  0.181437  1
  O  O24  1  0.352048  0.418520  0.690378  1
  O  O25  1  0.930222  0.809974  0.993839  1
  O  O26  1  0.052164  0.629046  0.818563  1
  O  O27  1  0.341688  0.740303  0.589643  1
  O  O28  1  0.959774  0.419892  0.727017  1
  O  O29  1  0.265965  0.309974  0.493839  1
  O  O30  1  0.500228  0.129046  0.318563  1
  O  O31  1  0.709760  0.170384  0.998689  1
  O  O32  1  0.328366  0.240303  0.089643  1
  O  O33  1  0.069778  0.190026  0.006161  1
  O  O34  1  0.106015  0.046437  0.317134  1
  O  O35  1  0.658312  0.259697  0.410357  1
  O  O36  1  0.469585  0.453563  0.182866  1
  O  O37  1  0.671634  0.759697  0.910357  1
  O  O38  1  0.499772  0.870954  0.681437  1
  O  O39  1  0.893316  0.919892  0.227017  1
  O  O40  1  0.530415  0.546437  0.817134  1
  O  O41  1  0.460947  0.081480  0.809622  1
  O  O42  1  0.893985  0.953563  0.682866  1
  O  O43  1  0.647952  0.581480  0.309622  1
  O  O44  1  0.290240  0.829616  0.001311  1
  O  O45  1  0.878834  0.329616  0.501311  1
