# generated using pymatgen
data_Al5(BiSe4)3
_symmetry_space_group_name_H-M   'P 1'
_cell_length_a   7.91134743
_cell_length_b   7.91134743
_cell_length_c   37.76785315
_cell_angle_alpha   90.00000000
_cell_angle_beta   90.00000000
_cell_angle_gamma   90.00000000
_symmetry_Int_Tables_number   1
_chemical_formula_structural   Al5(BiSe4)3
_chemical_formula_sum   'Al20 Bi12 Se48'
_cell_volume   2363.86795374
_cell_formula_units_Z   4
loop_
 _symmetry_equiv_pos_site_id
 _symmetry_equiv_pos_as_xyz
  1  'x, y, z'
loop_
 _atom_site_type_symbol
 _atom_site_label
 _atom_site_symmetry_multiplicity
 _atom_site_fract_x
 _atom_site_fract_y
 _atom_site_fract_z
 _atom_site_occupancy
  Al  Al0  1  0.250000  0.750000  0.999610  1
  Al  Al1  1  0.250000  0.750000  0.333723  1
  Al  Al2  1  0.250000  0.750000  0.666667  1
  Al  Al3  1  0.250000  0.750000  0.083763  1
  Al  Al4  1  0.250000  0.750000  0.749570  1
  Al  Al5  1  0.250000  0.750000  0.166667  1
  Al  Al6  1  0.250000  0.750000  0.499610  1
  Al  Al7  1  0.250000  0.750000  0.833723  1
  Al  Al8  1  0.750000  0.250000  0.249313  1
  Al  Al9  1  0.750000  0.250000  0.584020  1
  Al  Al10  1  0.750000  0.250000  0.916667  1
  Al  Al11  1  0.750000  0.250000  0.499699  1
  Al  Al12  1  0.750000  0.250000  0.833634  1
  Al  Al13  1  0.750000  0.250000  0.999699  1
  Al  Al14  1  0.750000  0.250000  0.333634  1
  Al  Al15  1  0.250000  0.750000  0.249570  1
  Al  Al16  1  0.250000  0.750000  0.583763  1
  Al  Al17  1  0.750000  0.250000  0.084020  1
  Al  Al18  1  0.750000  0.250000  0.416667  1
  Al  Al19  1  0.750000  0.250000  0.749313  1
  Bi  Bi20  1  0.250000  0.250000  0.041520  1
  Bi  Bi21  1  0.250000  0.250000  0.375348  1
  Bi  Bi22  1  0.250000  0.250000  0.708344  1
  Bi  Bi23  1  0.750000  0.750000  0.291814  1
  Bi  Bi24  1  0.750000  0.750000  0.624989  1
  Bi  Bi25  1  0.750000  0.750000  0.957985  1
  Bi  Bi26  1  0.750000  0.750000  0.208344  1
  Bi  Bi27  1  0.750000  0.750000  0.541520  1
  Bi  Bi28  1  0.750000  0.750000  0.875348  1
  Bi  Bi29  1  0.250000  0.250000  0.124989  1
  Bi  Bi30  1  0.250000  0.250000  0.457985  1
  Bi  Bi31  1  0.250000  0.250000  0.791814  1
  Se  Se32  1  0.587313  0.418283  0.041242  1
  Se  Se33  1  0.586830  0.418705  0.375185  1
  Se  Se34  1  0.584285  0.411224  0.708870  1
  Se  Se35  1  0.588776  0.415715  0.208870  1
  Se  Se36  1  0.581717  0.412687  0.541242  1
  Se  Se37  1  0.581295  0.413170  0.875185  1
  Se  Se38  1  0.086926  0.581169  0.208272  1
  Se  Se39  1  0.086932  0.582529  0.542301  1
  Se  Se40  1  0.083321  0.591429  0.874439  1
  Se  Se41  1  0.912687  0.081717  0.041242  1
  Se  Se42  1  0.913170  0.081295  0.375185  1
  Se  Se43  1  0.915715  0.088776  0.708870  1
  Se  Se44  1  0.581717  0.087313  0.292091  1
  Se  Se45  1  0.588776  0.084285  0.624463  1
  Se  Se46  1  0.581295  0.086830  0.958149  1
  Se  Se47  1  0.418831  0.586926  0.125061  1
  Se  Se48  1  0.408571  0.583321  0.458895  1
  Se  Se49  1  0.417471  0.586932  0.791032  1
  Se  Se50  1  0.584285  0.088776  0.124463  1
  Se  Se51  1  0.586830  0.081295  0.458149  1
  Se  Se52  1  0.587313  0.081717  0.792091  1
  Se  Se53  1  0.082529  0.586932  0.042301  1
  Se  Se54  1  0.091429  0.583321  0.374439  1
  Se  Se55  1  0.081169  0.586926  0.708272  1
  Se  Se56  1  0.081169  0.913074  0.125061  1
  Se  Se57  1  0.091429  0.916679  0.458895  1
  Se  Se58  1  0.082529  0.913068  0.791032  1
  Se  Se59  1  0.918283  0.412687  0.292091  1
  Se  Se60  1  0.911224  0.415715  0.624463  1
  Se  Se61  1  0.918705  0.413170  0.958149  1
  Se  Se62  1  0.417471  0.913068  0.042301  1
  Se  Se63  1  0.408571  0.916679  0.374439  1
  Se  Se64  1  0.418831  0.913074  0.708272  1
  Se  Se65  1  0.911224  0.084285  0.208870  1
  Se  Se66  1  0.918283  0.087313  0.541242  1
  Se  Se67  1  0.918705  0.086830  0.875185  1
  Se  Se68  1  0.413074  0.918831  0.208272  1
  Se  Se69  1  0.413068  0.917471  0.542301  1
  Se  Se70  1  0.416679  0.908571  0.874439  1
  Se  Se71  1  0.086932  0.917471  0.291032  1
  Se  Se72  1  0.086926  0.918831  0.625061  1
  Se  Se73  1  0.083321  0.908571  0.958895  1
  Se  Se74  1  0.413068  0.582529  0.291032  1
  Se  Se75  1  0.413074  0.581169  0.625061  1
  Se  Se76  1  0.416679  0.591429  0.958895  1
  Se  Se77  1  0.915715  0.411224  0.124463  1
  Se  Se78  1  0.913170  0.418705  0.458149  1
  Se  Se79  1  0.912687  0.418283  0.792091  1
