# generated using pymatgen
data_YW3O8
_symmetry_space_group_name_H-M   'P 1'
_cell_length_a   5.23113376
_cell_length_b   5.79978945
_cell_length_c   6.56054315
_cell_angle_alpha   108.90690249
_cell_angle_beta   116.89658118
_cell_angle_gamma   93.79961392
_symmetry_Int_Tables_number   1
_chemical_formula_structural   YW3O8
_chemical_formula_sum   'Y1 W3 O8'
_cell_volume   162.50231006
_cell_formula_units_Z   1
loop_
 _symmetry_equiv_pos_site_id
 _symmetry_equiv_pos_as_xyz
  1  'x, y, z'
loop_
 _atom_site_type_symbol
 _atom_site_label
 _atom_site_symmetry_multiplicity
 _atom_site_fract_x
 _atom_site_fract_y
 _atom_site_fract_z
 _atom_site_occupancy
  Y  Y0  1  0.622741  0.721042  0.099361  1
  W  W1  1  0.123889  0.222087  0.099041  1
  W  W2  1  0.872424  0.388090  0.585603  1
  W  W3  1  0.377396  0.058480  0.613642  1
  O  O4  1  0.144693  0.684569  0.828795  1
  O  O5  1  0.557650  0.457010  0.304836  1
  O  O6  1  0.162272  0.205088  0.797731  1
  O  O7  1  0.601613  0.031100  0.415033  1
  O  O8  1  0.690813  0.988202  0.894146  1
  O  O9  1  0.102777  0.763743  0.369369  1
  O  O10  1  0.089956  0.244150  0.403094  1
  O  O11  1  0.649776  0.414937  0.785446  1
