# generated using pymatgen
data_Mo2O3
_symmetry_space_group_name_H-M   'P 1'
_cell_length_a   3.28732071
_cell_length_b   5.66696244
_cell_length_c   16.22485332
_cell_angle_alpha   90.00000000
_cell_angle_beta   90.00000000
_cell_angle_gamma   106.86050944
_symmetry_Int_Tables_number   1
_chemical_formula_structural   Mo2O3
_chemical_formula_sum   'Mo8 O12'
_cell_volume   289.26197903
_cell_formula_units_Z   4
loop_
 _symmetry_equiv_pos_site_id
 _symmetry_equiv_pos_as_xyz
  1  'x, y, z'
loop_
 _atom_site_type_symbol
 _atom_site_label
 _atom_site_symmetry_multiplicity
 _atom_site_fract_x
 _atom_site_fract_y
 _atom_site_fract_z
 _atom_site_occupancy
  Mo  Mo0  1  0.867153  0.734309  0.045338  1
  Mo  Mo1  1  0.132845  0.265690  0.954662  1
  Mo  Mo2  1  0.867153  0.734309  0.454662  1
  Mo  Mo3  1  0.132845  0.265690  0.545338  1
  Mo  Mo4  1  0.400067  0.800133  0.643562  1
  Mo  Mo5  1  0.599933  0.199867  0.356439  1
  Mo  Mo6  1  0.599933  0.199867  0.143561  1
  Mo  Mo7  1  0.400067  0.800133  0.856438  1
  O  O8  1  0.499999  0.000000  0.500000  1
  O  O9  1  0.499999  0.000000  0.000000  1
  O  O10  1  0.017465  0.034931  0.852421  1
  O  O11  1  0.982535  0.965069  0.147580  1
  O  O12  1  0.982535  0.965069  0.352420  1
  O  O13  1  0.017465  0.034931  0.647580  1
  O  O14  1  0.758928  0.517858  0.926710  1
  O  O15  1  0.241071  0.482143  0.073290  1
  O  O16  1  0.241071  0.482143  0.426710  1
  O  O17  1  0.758928  0.517858  0.573290  1
  O  O18  1  0.313705  0.627408  0.750000  1
  O  O19  1  0.686293  0.372591  0.250000  1
