# generated using pymatgen
data_Ca2CrWO6
_symmetry_space_group_name_H-M   'P 1'
_cell_length_a   5.46606385
_cell_length_b   5.57047614
_cell_length_c   7.81760286
_cell_angle_alpha   90.00000000
_cell_angle_beta   90.93901308
_cell_angle_gamma   90.00000000
_symmetry_Int_Tables_number   1
_chemical_formula_structural   Ca2CrWO6
_chemical_formula_sum   'Ca4 Cr2 W2 O12'
_cell_volume   238.00292584
_cell_formula_units_Z   2
loop_
 _symmetry_equiv_pos_site_id
 _symmetry_equiv_pos_as_xyz
  1  'x, y, z'
loop_
 _atom_site_type_symbol
 _atom_site_label
 _atom_site_symmetry_multiplicity
 _atom_site_fract_x
 _atom_site_fract_y
 _atom_site_fract_z
 _atom_site_occupancy
  Ca  Ca0  1  0.989539  0.048174  0.253780  1
  Ca  Ca1  1  0.510461  0.548175  0.246220  1
  Ca  Ca2  1  0.010462  0.951827  0.746220  1
  Ca  Ca3  1  0.489538  0.451826  0.753780  1
  Cr  Cr4  1  0.500000  0.000000  0.000000  1
  Cr  Cr5  1  0.000001  0.499999  0.500000  1
  W  W6  1  0.500000  0.000000  0.499999  1
  W  W7  1  0.000000  0.499999  0.000000  1
  O  O8  1  0.699028  0.286919  0.452153  1
  O  O9  1  0.800972  0.786920  0.047847  1
  O  O10  1  0.300971  0.713081  0.547847  1
  O  O11  1  0.199029  0.213080  0.952153  1
  O  O12  1  0.202101  0.206711  0.545964  1
  O  O13  1  0.297899  0.706710  0.954036  1
  O  O14  1  0.797900  0.793289  0.454036  1
  O  O15  1  0.702100  0.293290  0.045964  1
  O  O16  1  0.088231  0.478554  0.251011  1
  O  O17  1  0.411770  0.978555  0.248988  1
  O  O18  1  0.588231  0.021445  0.751012  1
  O  O19  1  0.911770  0.521446  0.748989  1
