# generated using pymatgen
data_Mg3Co2(SiO4)3
_symmetry_space_group_name_H-M   'P 1'
_cell_length_a   10.01301081
_cell_length_b   10.01301105
_cell_length_c   10.01301076
_cell_angle_alpha   109.47122175
_cell_angle_beta   109.47122221
_cell_angle_gamma   109.47121853
_symmetry_Int_Tables_number   1
_chemical_formula_structural   Mg3Co2(SiO4)3
_chemical_formula_sum   'Mg12 Co8 Si12 O48'
_cell_volume   772.80899744
_cell_formula_units_Z   4
loop_
 _symmetry_equiv_pos_site_id
 _symmetry_equiv_pos_as_xyz
  1  'x, y, z'
loop_
 _atom_site_type_symbol
 _atom_site_label
 _atom_site_symmetry_multiplicity
 _atom_site_fract_x
 _atom_site_fract_y
 _atom_site_fract_z
 _atom_site_occupancy
  Mg  Mg0  1  0.375000  0.750000  0.125000  1
  Mg  Mg1  1  0.125000  0.250000  0.375000  1
  Mg  Mg2  1  0.375000  0.125000  0.250000  1
  Mg  Mg3  1  0.125000  0.375000  0.750000  1
  Mg  Mg4  1  0.875000  0.750000  0.625000  1
  Mg  Mg5  1  0.750000  0.125000  0.375000  1
  Mg  Mg6  1  0.750000  0.625000  0.875000  1
  Mg  Mg7  1  0.625000  0.250000  0.875000  1
  Mg  Mg8  1  0.250000  0.875000  0.625000  1
  Mg  Mg9  1  0.875000  0.625000  0.250000  1
  Mg  Mg10  1  0.625000  0.875000  0.750000  1
  Mg  Mg11  1  0.250000  0.375000  0.125000  1
  Co  Co12  1  0.000000  0.000000  0.000000  1
  Co  Co13  1  0.000000  0.500000  0.000000  1
  Co  Co14  1  0.000000  0.000000  0.500000  1
  Co  Co15  1  0.000000  0.500000  0.500000  1
  Co  Co16  1  0.500000  0.000000  0.500000  1
  Co  Co17  1  0.500000  0.500000  0.000000  1
  Co  Co18  1  0.500000  0.500000  0.500000  1
  Co  Co19  1  0.500000  0.000000  0.000000  1
  Si  Si20  1  0.250000  0.125000  0.875000  1
  Si  Si21  1  0.750000  0.875000  0.125000  1
  Si  Si22  1  0.375000  0.250000  0.625000  1
  Si  Si23  1  0.625000  0.375000  0.250000  1
  Si  Si24  1  0.125000  0.750000  0.875000  1
  Si  Si25  1  0.875000  0.125000  0.750000  1
  Si  Si26  1  0.750000  0.375000  0.625000  1
  Si  Si27  1  0.375000  0.625000  0.750000  1
  Si  Si28  1  0.125000  0.875000  0.250000  1
  Si  Si29  1  0.875000  0.250000  0.125000  1
  Si  Si30  1  0.625000  0.750000  0.375000  1
  Si  Si31  1  0.250000  0.625000  0.375000  1
  O  O32  1  0.293752  0.480169  0.377335  1
  O  O33  1  0.019831  0.313583  0.897166  1
  O  O34  1  0.122665  0.602834  0.916417  1
  O  O35  1  0.206248  0.583583  0.186417  1
  O  O36  1  0.206248  0.122665  0.019831  1
  O  O37  1  0.583583  0.186417  0.206248  1
  O  O38  1  0.602834  0.186417  0.480169  1
  O  O39  1  0.186417  0.206248  0.583583  1
  O  O40  1  0.897166  0.377335  0.583583  1
  O  O41  1  0.313583  0.916417  0.293752  1
  O  O42  1  0.916417  0.293752  0.313583  1
  O  O43  1  0.019831  0.206248  0.122665  1
  O  O44  1  0.186417  0.480169  0.602834  1
  O  O45  1  0.583583  0.897166  0.377335  1
  O  O46  1  0.122665  0.019831  0.206248  1
  O  O47  1  0.480169  0.602834  0.186417  1
  O  O48  1  0.377335  0.583583  0.897166  1
  O  O49  1  0.897166  0.019831  0.313583  1
  O  O50  1  0.602834  0.916417  0.122665  1
  O  O51  1  0.102834  0.622665  0.416417  1
  O  O52  1  0.916417  0.122665  0.602834  1
  O  O53  1  0.377335  0.293752  0.480169  1
  O  O54  1  0.313583  0.897166  0.019831  1
  O  O55  1  0.293752  0.313583  0.916417  1
  O  O56  1  0.706248  0.519831  0.622665  1
  O  O57  1  0.980169  0.686417  0.102834  1
  O  O58  1  0.877335  0.397166  0.083583  1
  O  O59  1  0.793752  0.416417  0.813583  1
  O  O60  1  0.793752  0.877335  0.980169  1
  O  O61  1  0.416417  0.813583  0.793752  1
  O  O62  1  0.397166  0.813583  0.519831  1
  O  O63  1  0.813583  0.793752  0.416417  1
  O  O64  1  0.706248  0.686417  0.083583  1
  O  O65  1  0.686417  0.102834  0.980169  1
  O  O66  1  0.622665  0.706248  0.519831  1
  O  O67  1  0.519831  0.622665  0.706248  1
  O  O68  1  0.083583  0.877335  0.397166  1
  O  O69  1  0.397166  0.083583  0.877335  1
  O  O70  1  0.102834  0.980169  0.686417  1
  O  O71  1  0.622665  0.416417  0.102834  1
  O  O72  1  0.519831  0.397166  0.813583  1
  O  O73  1  0.877335  0.980169  0.793752  1
  O  O74  1  0.416417  0.102834  0.622665  1
  O  O75  1  0.813583  0.519831  0.397166  1
  O  O76  1  0.980169  0.793752  0.877335  1
  O  O77  1  0.083583  0.706248  0.686417  1
  O  O78  1  0.686417  0.083583  0.706248  1
  O  O79  1  0.480169  0.377335  0.293752  1
