# generated using pymatgen
data_ZnCrO2
_symmetry_space_group_name_H-M   'P 1'
_cell_length_a   3.07013155
_cell_length_b   8.03506976
_cell_length_c   8.91714443
_cell_angle_alpha   88.73785106
_cell_angle_beta   73.80705124
_cell_angle_gamma   86.25459357
_symmetry_Int_Tables_number   1
_chemical_formula_structural   ZnCrO2
_chemical_formula_sum   'Zn4 Cr4 O8'
_cell_volume   210.79486509
_cell_formula_units_Z   4
loop_
 _symmetry_equiv_pos_site_id
 _symmetry_equiv_pos_as_xyz
  1  'x, y, z'
loop_
 _atom_site_type_symbol
 _atom_site_label
 _atom_site_symmetry_multiplicity
 _atom_site_fract_x
 _atom_site_fract_y
 _atom_site_fract_z
 _atom_site_occupancy
  Zn  Zn0  1  0.390862  0.072623  0.278343  1
  Zn  Zn1  1  0.606170  0.907323  0.749870  1
  Zn  Zn2  1  0.146215  0.738379  0.117161  1
  Zn  Zn3  1  0.851765  0.241658  0.910985  1
  Cr  Cr4  1  0.432877  0.238902  0.586713  1
  Cr  Cr5  1  0.066089  0.413412  0.213982  1
  Cr  Cr6  1  0.928822  0.566553  0.814220  1
  Cr  Cr7  1  0.562804  0.740985  0.441465  1
  O  O8  1  0.937991  0.738402  0.594093  1
  O  O9  1  0.480342  0.382969  0.785041  1
  O  O10  1  0.514709  0.596851  0.243303  1
  O  O11  1  0.057613  0.241425  0.434021  1
  O  O12  1  0.070968  0.066468  0.759487  1
  O  O13  1  0.657957  0.261324  0.131336  1
  O  O14  1  0.925909  0.913398  0.268766  1
  O  O15  1  0.337184  0.718662  0.896834  1
