# generated using pymatgen
data_SiBiO4
_symmetry_space_group_name_H-M   'P 1'
_cell_length_a   10.66553619
_cell_length_b   10.66553564
_cell_length_c   10.66553580
_cell_angle_alpha   109.47122332
_cell_angle_beta   109.47122228
_cell_angle_gamma   109.47121999
_symmetry_Int_Tables_number   1
_chemical_formula_structural   SiBiO4
_chemical_formula_sum   'Si12 Bi12 O48'
_cell_volume   933.95538856
_cell_formula_units_Z   12
loop_
 _symmetry_equiv_pos_site_id
 _symmetry_equiv_pos_as_xyz
  1  'x, y, z'
loop_
 _atom_site_type_symbol
 _atom_site_label
 _atom_site_symmetry_multiplicity
 _atom_site_fract_x
 _atom_site_fract_y
 _atom_site_fract_z
 _atom_site_occupancy
  Si  Si0  1  0.250000  0.125000  0.875000  1
  Si  Si1  1  0.875000  0.250000  0.125000  1
  Si  Si2  1  0.625000  0.750001  0.375000  1
  Si  Si3  1  0.250000  0.625000  0.375001  1
  Si  Si4  1  0.375000  0.625000  0.750000  1
  Si  Si5  1  0.750000  0.375000  0.625000  1
  Si  Si6  1  0.875000  0.125000  0.750000  1
  Si  Si7  1  0.125000  0.750001  0.875000  1
  Si  Si8  1  0.125000  0.875001  0.250000  1
  Si  Si9  1  0.625000  0.375000  0.250000  1
  Si  Si10  1  0.375000  0.250000  0.625000  1
  Si  Si11  1  0.750000  0.875001  0.125000  1
  Bi  Bi12  1  0.250000  0.875001  0.625000  1
  Bi  Bi13  1  0.875000  0.625000  0.250000  1
  Bi  Bi14  1  0.625001  0.875001  0.750001  1
  Bi  Bi15  1  0.875001  0.750001  0.625001  1
  Bi  Bi16  1  0.625000  0.250000  0.875000  1
  Bi  Bi17  1  0.750000  0.625000  0.875000  1
  Bi  Bi18  1  0.750000  0.125000  0.375000  1
  Bi  Bi19  1  0.125000  0.375000  0.750000  1
  Bi  Bi20  1  0.375000  0.125000  0.250000  1
  Bi  Bi21  1  0.125000  0.250000  0.375000  1
  Bi  Bi22  1  0.375000  0.750001  0.125000  1
  Bi  Bi23  1  0.250000  0.375000  0.125000  1
  O  O24  1  0.274353  0.478147  0.373108  1
  O  O25  1  0.021853  0.296206  0.894961  1
  O  O26  1  0.126892  0.605039  0.901245  1
  O  O27  1  0.225646  0.598755  0.203794  1
  O  O28  1  0.225646  0.126891  0.021852  1
  O  O29  1  0.598754  0.203793  0.225646  1
  O  O30  1  0.605038  0.203793  0.478147  1
  O  O31  1  0.203794  0.225646  0.598756  1
  O  O32  1  0.894962  0.373108  0.598755  1
  O  O33  1  0.296207  0.901245  0.274354  1
  O  O34  1  0.901245  0.274354  0.296207  1
  O  O35  1  0.021853  0.225646  0.126891  1
  O  O36  1  0.203794  0.478147  0.605039  1
  O  O37  1  0.598755  0.894962  0.373109  1
  O  O38  1  0.126891  0.021852  0.225646  1
  O  O39  1  0.478147  0.605039  0.203793  1
  O  O40  1  0.373108  0.598755  0.894961  1
  O  O41  1  0.894961  0.021852  0.296206  1
  O  O42  1  0.605038  0.901245  0.126892  1
  O  O43  1  0.105038  0.626891  0.401245  1
  O  O44  1  0.478147  0.373108  0.274353  1
  O  O45  1  0.373108  0.274354  0.478147  1
  O  O46  1  0.296207  0.894962  0.021853  1
  O  O47  1  0.274353  0.296206  0.901244  1
  O  O48  1  0.725646  0.521852  0.626891  1
  O  O49  1  0.978147  0.703793  0.105038  1
  O  O50  1  0.873109  0.394962  0.098755  1
  O  O51  1  0.774354  0.401245  0.796207  1
  O  O52  1  0.774353  0.873109  0.978148  1
  O  O53  1  0.401245  0.796206  0.774353  1
  O  O54  1  0.394962  0.796206  0.521852  1
  O  O55  1  0.796207  0.774354  0.401245  1
  O  O56  1  0.725646  0.703793  0.098755  1
  O  O57  1  0.703794  0.105039  0.978147  1
  O  O58  1  0.626891  0.725647  0.521853  1
  O  O59  1  0.521853  0.626891  0.725646  1
  O  O60  1  0.098755  0.873109  0.394961  1
  O  O61  1  0.394961  0.098754  0.873108  1
  O  O62  1  0.105039  0.978147  0.703793  1
  O  O63  1  0.626892  0.401245  0.105038  1
  O  O64  1  0.521853  0.394962  0.796207  1
  O  O65  1  0.873109  0.978147  0.774354  1
  O  O66  1  0.401245  0.105039  0.626892  1
  O  O67  1  0.796206  0.521852  0.394962  1
  O  O68  1  0.978147  0.774354  0.873109  1
  O  O69  1  0.098755  0.725647  0.703794  1
  O  O70  1  0.703793  0.098754  0.725646  1
  O  O71  1  0.901245  0.126891  0.605038  1
