# generated using pymatgen
data_YWF5
_symmetry_space_group_name_H-M   'P 1'
_cell_length_a   4.32321488
_cell_length_b   5.96745670
_cell_length_c   5.96745626
_cell_angle_alpha   71.57557023
_cell_angle_beta   68.76263531
_cell_angle_gamma   68.76262156
_symmetry_Int_Tables_number   1
_chemical_formula_structural   YWF5
_chemical_formula_sum   'Y1 W1 F5'
_cell_volume   130.68934124
_cell_formula_units_Z   1
loop_
 _symmetry_equiv_pos_site_id
 _symmetry_equiv_pos_as_xyz
  1  'x, y, z'
loop_
 _atom_site_type_symbol
 _atom_site_label
 _atom_site_symmetry_multiplicity
 _atom_site_fract_x
 _atom_site_fract_y
 _atom_site_fract_z
 _atom_site_occupancy
  Y  Y0  1  0.500000  0.500000  0.500000  1
  W  W1  1  0.000000  0.000000  0.000000  1
  F  F2  1  0.500000  0.817568  0.182432  1
  F  F3  1  0.500000  0.182432  0.817568  1
  F  F4  1  0.752765  0.247235  0.247235  1
  F  F5  1  0.247235  0.752765  0.752765  1
  F  F6  1  0.000000  0.500000  0.500000  1
