# generated using pymatgen
data_Ca2FeSbO6
_symmetry_space_group_name_H-M   'P 1'
_cell_length_a   5.50292230
_cell_length_b   5.65099049
_cell_length_c   7.80565371
_cell_angle_alpha   90.00000000
_cell_angle_beta   90.00000000
_cell_angle_gamma   90.18208795
_symmetry_Int_Tables_number   1
_chemical_formula_structural   Ca2FeSbO6
_chemical_formula_sum   'Ca4 Fe2 Sb2 O12'
_cell_volume   242.73088787
_cell_formula_units_Z   2
loop_
 _symmetry_equiv_pos_site_id
 _symmetry_equiv_pos_as_xyz
  1  'x, y, z'
loop_
 _atom_site_type_symbol
 _atom_site_label
 _atom_site_symmetry_multiplicity
 _atom_site_fract_x
 _atom_site_fract_y
 _atom_site_fract_z
 _atom_site_occupancy
  Ca  Ca0  1  0.519074  0.564650  0.750000  1
  Ca  Ca1  1  0.480926  0.435350  0.250000  1
  Ca  Ca2  1  0.000861  0.041222  0.750000  1
  Ca  Ca3  1  0.999139  0.958778  0.250000  1
  Fe  Fe4  1  0.500000  0.000000  0.500000  1
  Fe  Fe5  1  0.500000  0.000000  0.000000  1
  Sb  Sb6  1  0.000000  0.500000  0.500000  1
  Sb  Sb7  1  0.000000  0.500000  0.000000  1
  O  O8  1  0.293327  0.696739  0.451385  1
  O  O9  1  0.192835  0.208939  0.049822  1
  O  O10  1  0.706673  0.303261  0.951385  1
  O  O11  1  0.807165  0.791061  0.549822  1
  O  O12  1  0.192835  0.208939  0.450178  1
  O  O13  1  0.807165  0.791061  0.950178  1
  O  O14  1  0.896159  0.535186  0.250000  1
  O  O15  1  0.293327  0.696739  0.048615  1
  O  O16  1  0.417941  0.970828  0.750000  1
  O  O17  1  0.706673  0.303261  0.548615  1
  O  O18  1  0.103841  0.464814  0.750000  1
  O  O19  1  0.582059  0.029172  0.250000  1
