# generated using pymatgen
data_Ba2Mn3AlO8
_symmetry_space_group_name_H-M   'P 1'
_cell_length_a   3.88015931
_cell_length_b   3.88004849
_cell_length_c   11.80624220
_cell_angle_alpha   90.00017658
_cell_angle_beta   90.00035389
_cell_angle_gamma   89.99697108
_symmetry_Int_Tables_number   1
_chemical_formula_structural   Ba2Mn3AlO8
_chemical_formula_sum   'Ba2 Mn3 Al1 O8'
_cell_volume   177.74541149
_cell_formula_units_Z   1
loop_
 _symmetry_equiv_pos_site_id
 _symmetry_equiv_pos_as_xyz
  1  'x, y, z'
loop_
 _atom_site_type_symbol
 _atom_site_label
 _atom_site_symmetry_multiplicity
 _atom_site_fract_x
 _atom_site_fract_y
 _atom_site_fract_z
 _atom_site_occupancy
  Ba  Ba0  1  0.499999  0.500001  0.167710  1
  Ba  Ba1  1  0.499998  0.499997  0.832263  1
  Mn  Mn2  1  0.000019  0.999999  0.353073  1
  Mn  Mn3  1  0.000018  0.000022  0.999983  1
  Mn  Mn4  1  0.999993  -0.000009  0.646911  1
  Al  Al5  1  0.499994  0.499968  0.500011  1
  O  O6  1  0.999981  0.499998  0.395647  1
  O  O7  1  0.499986  0.000018  0.395645  1
  O  O8  1  0.500008  -0.000010  0.999951  1
  O  O9  1  0.000004  0.000005  0.180165  1
  O  O10  1  0.999993  0.499997  0.604412  1
  O  O11  1  0.499998  0.000012  0.604404  1
  O  O12  1  0.000001  0.000006  0.819876  1
  O  O13  1  0.000008  0.499995  0.999950  1
