# generated using pymatgen
data_Ca11(MnN5)2
_symmetry_space_group_name_H-M   'P 1'
_cell_length_a   6.21526957
_cell_length_b   6.21527030
_cell_length_c   12.29481463
_cell_angle_alpha   89.73472748
_cell_angle_beta   89.73472762
_cell_angle_gamma   117.60346196
_symmetry_Int_Tables_number   1
_chemical_formula_structural   Ca11(MnN5)2
_chemical_formula_sum   'Ca11 Mn2 N10'
_cell_volume   420.86654846
_cell_formula_units_Z   1
loop_
 _symmetry_equiv_pos_site_id
 _symmetry_equiv_pos_as_xyz
  1  'x, y, z'
loop_
 _atom_site_type_symbol
 _atom_site_label
 _atom_site_symmetry_multiplicity
 _atom_site_fract_x
 _atom_site_fract_y
 _atom_site_fract_z
 _atom_site_occupancy
  Ca  Ca0  1  0.002753  0.444161  0.883274  1
  Ca  Ca1  1  0.591211  0.978324  0.124132  1
  Ca  Ca2  1  0.385471  0.997494  0.615528  1
  Ca  Ca3  1  0.415202  0.415202  0.377403  1
  Ca  Ca4  1  0.611021  0.000975  0.386081  1
  Ca  Ca5  1  0.390465  0.390465  0.082962  1
  Ca  Ca6  1  0.978324  0.591211  0.124132  1
  Ca  Ca7  1  0.997494  0.385471  0.615528  1
  Ca  Ca8  1  0.586264  0.586264  0.634644  1
  Ca  Ca9  1  0.444161  0.002753  0.883274  1
  Ca  Ca10  1  0.000975  0.611021  0.386081  1
  Mn  Mn11  1  0.982205  0.982205  0.752623  1
  Mn  Mn12  1  0.019249  0.019249  0.255430  1
  N  N13  1  0.723357  0.009442  0.734661  1
  N  N14  1  0.245125  0.245125  0.726282  1
  N  N15  1  0.287931  0.001573  0.262700  1
  N  N16  1  0.666322  0.333776  0.501838  1
  N  N17  1  0.302498  0.679983  0.008361  1
  N  N18  1  0.333776  0.666322  0.501838  1
  N  N19  1  0.679983  0.302498  0.008361  1
  N  N20  1  0.739645  0.739645  0.255821  1
  N  N21  1  0.001573  0.287931  0.262700  1
  N  N22  1  0.009442  0.723357  0.734661  1
