# generated using pymatgen
data_Cr3Se2ClO8
_symmetry_space_group_name_H-M   'P 1'
_cell_length_a   6.41488562
_cell_length_b   7.91773870
_cell_length_c   10.05922318
_cell_angle_alpha   89.33635168
_cell_angle_beta   89.89473468
_cell_angle_gamma   89.99942033
_symmetry_Int_Tables_number   1
_chemical_formula_structural   Cr3Se2ClO8
_chemical_formula_sum   'Cr6 Se4 Cl2 O16'
_cell_volume   510.88677414
_cell_formula_units_Z   2
loop_
 _symmetry_equiv_pos_site_id
 _symmetry_equiv_pos_as_xyz
  1  'x, y, z'
loop_
 _atom_site_type_symbol
 _atom_site_label
 _atom_site_symmetry_multiplicity
 _atom_site_fract_x
 _atom_site_fract_y
 _atom_site_fract_z
 _atom_site_occupancy
  Cr  Cr0  1  0.500030  0.000088  0.000144  1
  Cr  Cr1  1  0.500222  0.999668  0.499644  1
  Cr  Cr2  1  0.999907  0.999874  0.000120  1
  Cr  Cr3  1  0.749632  0.198517  0.750973  1
  Cr  Cr4  1  0.250326  0.801418  0.248940  1
  Cr  Cr5  1  0.999795  0.999932  0.499716  1
  Se  Se6  1  0.749742  0.358184  0.045646  1
  Se  Se7  1  0.250338  0.641947  0.954242  1
  Se  Se8  1  0.750039  0.354446  0.443640  1
  Se  Se9  1  0.249975  0.645519  0.556240  1
  Cl  Cl10  1  0.250488  0.107146  0.831843  1
  Cl  Cl11  1  0.749148  0.893241  0.169238  1
  O  O12  1  0.249622  0.957914  0.111464  1
  O  O13  1  0.250109  0.612984  0.127025  1
  O  O14  1  0.749448  0.385168  0.612215  1
  O  O15  1  0.535754  0.230524  0.073914  1
  O  O16  1  0.466960  0.776840  0.575312  1
  O  O17  1  0.033401  0.777095  0.575584  1
  O  O18  1  0.750334  0.042189  0.888686  1
  O  O19  1  0.963433  0.230284  0.073847  1
  O  O20  1  0.966956  0.223124  0.424542  1
  O  O21  1  0.036341  0.769529  0.926118  1
  O  O22  1  0.250108  0.961144  0.397198  1
  O  O23  1  0.749772  0.038604  0.602582  1
  O  O24  1  0.464210  0.769776  0.926090  1
  O  O25  1  0.533408  0.222768  0.424544  1
  O  O26  1  0.749816  0.387147  0.872815  1
  O  O27  1  0.250687  0.614930  0.387679  1
