# generated using pymatgen
data_Mg2CrIrO6
_symmetry_space_group_name_H-M   'P 1'
_cell_length_a   5.14074044
_cell_length_b   5.30098209
_cell_length_c   7.53332878
_cell_angle_alpha   90.00000000
_cell_angle_beta   89.88040976
_cell_angle_gamma   90.00000000
_symmetry_Int_Tables_number   1
_chemical_formula_structural   Mg2CrIrO6
_chemical_formula_sum   'Mg4 Cr2 Ir2 O12'
_cell_volume   205.29009228
_cell_formula_units_Z   2
loop_
 _symmetry_equiv_pos_site_id
 _symmetry_equiv_pos_as_xyz
  1  'x, y, z'
loop_
 _atom_site_type_symbol
 _atom_site_label
 _atom_site_symmetry_multiplicity
 _atom_site_fract_x
 _atom_site_fract_y
 _atom_site_fract_z
 _atom_site_occupancy
  Mg  Mg0  1  0.006431  0.942313  0.249202  1
  Mg  Mg1  1  0.493569  0.442313  0.250798  1
  Mg  Mg2  1  0.506431  0.557687  0.749202  1
  Mg  Mg3  1  0.993569  0.057687  0.750798  1
  Cr  Cr4  1  0.000000  0.500000  0.000000  1
  Cr  Cr5  1  0.500000  0.000000  0.500000  1
  Ir  Ir6  1  0.000000  0.500000  0.500000  1
  Ir  Ir7  1  0.500000  0.000000  0.000000  1
  O  O8  1  0.132091  0.428979  0.749076  1
  O  O9  1  0.179884  0.181853  0.067747  1
  O  O10  1  0.176521  0.183140  0.429917  1
  O  O11  1  0.323479  0.683140  0.070083  1
  O  O12  1  0.320116  0.681853  0.432253  1
  O  O13  1  0.367909  0.928979  0.750924  1
  O  O14  1  0.632091  0.071021  0.249076  1
  O  O15  1  0.679884  0.318147  0.567747  1
  O  O16  1  0.676521  0.316860  0.929917  1
  O  O17  1  0.820116  0.818147  0.932253  1
  O  O18  1  0.823479  0.816860  0.570083  1
  O  O19  1  0.867909  0.571021  0.250924  1
