# generated using pymatgen
data_Ca3Cu6(PO4)8
_symmetry_space_group_name_H-M   'P 1'
_cell_length_a   4.90528011
_cell_length_b   9.19730365
_cell_length_c   14.55826301
_cell_angle_alpha   95.19652187
_cell_angle_beta   89.88181425
_cell_angle_gamma   90.64375944
_symmetry_Int_Tables_number   1
_chemical_formula_structural   Ca3Cu6(PO4)8
_chemical_formula_sum   'Ca3 Cu6 P8 O32'
_cell_volume   654.05997387
_cell_formula_units_Z   1
loop_
 _symmetry_equiv_pos_site_id
 _symmetry_equiv_pos_as_xyz
  1  'x, y, z'
loop_
 _atom_site_type_symbol
 _atom_site_label
 _atom_site_symmetry_multiplicity
 _atom_site_fract_x
 _atom_site_fract_y
 _atom_site_fract_z
 _atom_site_occupancy
  Ca  Ca0  1  0.465383  0.454090  0.264247  1
  Ca  Ca1  1  0.496435  0.501602  0.993742  1
  Ca  Ca2  1  0.999491  0.000264  0.501761  1
  Cu  Cu3  1  0.033851  0.331145  0.624422  1
  Cu  Cu4  1  0.535208  0.166709  0.877130  1
  Cu  Cu5  1  0.976467  0.675912  0.380569  1
  Cu  Cu6  1  0.458716  0.840295  0.120617  1
  Cu  Cu7  1  0.496885  0.499806  0.503377  1
  Cu  Cu8  1  0.998739  0.000420  0.999808  1
  P  P9  1  0.488601  0.875043  0.338622  1
  P  P10  1  0.990820  0.622270  0.158952  1
  P  P11  1  0.508205  0.122985  0.660722  1
  P  P12  1  0.009924  0.377190  0.839835  1
  P  P13  1  0.507722  0.154631  0.090023  1
  P  P14  1  0.010299  0.344295  0.408246  1
  P  P15  1  0.489243  0.846705  0.908212  1
  P  P16  1  0.989452  0.653987  0.592914  1
  O  O17  1  0.545425  0.915466  0.238759  1
  O  O18  1  0.040447  0.583479  0.261770  1
  O  O19  1  0.454909  0.084370  0.761218  1
  O  O20  1  0.955990  0.416431  0.739524  1
  O  O21  1  0.315684  0.370097  0.862328  1
  O  O22  1  0.815653  0.130849  0.637435  1
  O  O23  1  0.680694  0.613545  0.142043  1
  O  O24  1  0.180457  0.870647  0.362433  1
  O  O25  1  0.586084  0.714607  0.351038  1
  O  O26  1  0.093067  0.779529  0.145692  1
  O  O27  1  0.405868  0.279727  0.645548  1
  O  O28  1  0.903136  0.219666  0.854019  1
  O  O29  1  0.634448  0.991386  0.401285  1
  O  O30  1  0.148417  0.503811  0.102533  1
  O  O31  1  0.365460  0.003838  0.599193  1
  O  O32  1  0.869004  0.496084  0.900861  1
  O  O33  1  0.686023  0.008648  0.077644  1
  O  O34  1  0.195066  0.493137  0.421391  1
  O  O35  1  0.312547  0.993084  0.923163  1
  O  O36  1  0.814322  0.505994  0.577020  1
  O  O37  1  0.921344  0.753039  0.676598  1
  O  O38  1  0.420912  0.747845  0.824667  1
  O  O39  1  0.097119  0.262377  0.320023  1
  O  O40  1  0.578331  0.253144  0.174438  1
  O  O41  1  0.569722  0.240897  0.004330  1
  O  O42  1  0.060208  0.259613  0.494073  1
  O  O43  1  0.432931  0.760983  0.995776  1
  O  O44  1  0.931040  0.742119  0.506799  1
  O  O45  1  0.290965  0.601211  0.596426  1
  O  O46  1  0.792086  0.901435  0.905621  1
  O  O47  1  0.709238  0.401317  0.403582  1
  O  O48  1  0.207679  0.098811  0.094897  1
