# generated using pymatgen
data_Mg(MoO2)2
_symmetry_space_group_name_H-M   'P 1'
_cell_length_a   6.40626395
_cell_length_b   6.33234696
_cell_length_c   19.06666184
_cell_angle_alpha   60.11317900
_cell_angle_beta   59.10538589
_cell_angle_gamma   60.23787083
_symmetry_Int_Tables_number   1
_chemical_formula_structural   Mg(MoO2)2
_chemical_formula_sum   'Mg6 Mo12 O24'
_cell_volume   544.54968940
_cell_formula_units_Z   6
loop_
 _symmetry_equiv_pos_site_id
 _symmetry_equiv_pos_as_xyz
  1  'x, y, z'
loop_
 _atom_site_type_symbol
 _atom_site_label
 _atom_site_symmetry_multiplicity
 _atom_site_fract_x
 _atom_site_fract_y
 _atom_site_fract_z
 _atom_site_occupancy
  Mg  Mg0  1  0.124732  0.118744  0.045617  1
  Mg  Mg1  1  0.126253  0.124786  0.374703  1
  Mg  Mg2  1  0.496694  0.494474  0.004174  1
  Mg  Mg3  1  0.120167  0.128548  0.708051  1
  Mg  Mg4  1  0.879275  0.876269  0.289521  1
  Mg  Mg5  1  0.873799  0.875863  0.624727  1
  Mo  Mo6  1  0.011184  0.496194  0.165892  1
  Mo  Mo7  1  0.505888  0.498936  0.164428  1
  Mo  Mo8  1  0.999587  0.500339  0.499661  1
  Mo  Mo9  1  0.505772  0.003303  0.164456  1
  Mo  Mo10  1  0.502561  0.501436  0.331693  1
  Mo  Mo11  1  0.499823  0.500388  0.499603  1
  Mo  Mo12  1  0.992116  0.500963  0.834831  1
  Mo  Mo13  1  0.500006  0.000699  0.499343  1
  Mo  Mo14  1  0.492921  0.001398  0.834321  1
  Mo  Mo15  1  0.495494  0.502504  0.667106  1
  Mo  Mo16  1  0.493514  0.501427  0.834854  1
  Mo  Mo17  1  0.880867  0.870893  0.955897  1
  O  O18  1  0.266748  0.252045  0.085052  1
  O  O19  1  0.261111  0.257579  0.242200  1
  O  O20  1  0.266491  0.725684  0.085497  1
  O  O21  1  0.732653  0.262189  0.081225  1
  O  O22  1  0.276083  0.742022  0.247539  1
  O  O23  1  0.259678  0.252724  0.419349  1
  O  O24  1  0.745122  0.271360  0.245936  1
  O  O25  1  0.764428  0.731891  0.091158  1
  O  O26  1  0.258129  0.729036  0.419975  1
  O  O27  1  0.251426  0.259969  0.576306  1
  O  O28  1  0.743608  0.746862  0.246403  1
  O  O29  1  0.729988  0.258163  0.417351  1
  O  O30  1  0.268961  0.742008  0.582712  1
  O  O31  1  0.251364  0.255824  0.753954  1
  O  O32  1  0.738627  0.271785  0.580931  1
  O  O33  1  0.747875  0.740037  0.423245  1
  O  O34  1  0.245901  0.261904  0.910707  1
  O  O35  1  0.249441  0.731759  0.755161  1
  O  O36  1  0.738260  0.747464  0.580947  1
  O  O37  1  0.722173  0.260782  0.752087  1
  O  O38  1  0.282493  0.727355  0.921977  1
  O  O39  1  0.741997  0.741233  0.757986  1
  O  O40  1  0.730748  0.276519  0.911602  1
  O  O41  1  0.726039  0.756639  0.911823  1
