# generated using pymatgen
data_FeO2
_symmetry_space_group_name_H-M   'P 1'
_cell_length_a   2.96512877
_cell_length_b   7.36035830
_cell_length_c   7.34997005
_cell_angle_alpha   88.02101927
_cell_angle_beta   78.42977401
_cell_angle_gamma   78.47989360
_symmetry_Int_Tables_number   1
_chemical_formula_structural   FeO2
_chemical_formula_sum   'Fe4 O8'
_cell_volume   153.98082317
_cell_formula_units_Z   4
loop_
 _symmetry_equiv_pos_site_id
 _symmetry_equiv_pos_as_xyz
  1  'x, y, z'
loop_
 _atom_site_type_symbol
 _atom_site_label
 _atom_site_symmetry_multiplicity
 _atom_site_fract_x
 _atom_site_fract_y
 _atom_site_fract_z
 _atom_site_occupancy
  Fe  Fe0  1  0.652233  0.183599  0.516045  1
  Fe  Fe1  1  0.167803  0.483218  0.184553  1
  Fe  Fe2  1  0.836631  0.516659  0.817903  1
  Fe  Fe3  1  0.351617  0.816668  0.484956  1
  O  O4  1  0.839272  0.707327  0.622106  1
  O  O5  1  0.459492  0.381587  0.706236  1
  O  O6  1  0.543964  0.619458  0.296383  1
  O  O7  1  0.163684  0.294788  0.380313  1
  O  O8  1  0.156774  0.056475  0.636389  1
  O  O9  1  0.791965  0.362850  0.057167  1
  O  O10  1  0.846965  0.943769  0.363604  1
  O  O11  1  0.212452  0.635778  0.947160  1
