# generated using pymatgen
data_ZnCr2O4
_symmetry_space_group_name_H-M   'P 1'
_cell_length_a   2.93599161
_cell_length_b   5.05326683
_cell_length_c   9.94085442
_cell_angle_alpha   90.00000000
_cell_angle_beta   90.00000000
_cell_angle_gamma   106.88815093
_symmetry_Int_Tables_number   1
_chemical_formula_structural   ZnCr2O4
_chemical_formula_sum   'Zn2 Cr4 O8'
_cell_volume   141.12545824
_cell_formula_units_Z   2
loop_
 _symmetry_equiv_pos_site_id
 _symmetry_equiv_pos_as_xyz
  1  'x, y, z'
loop_
 _atom_site_type_symbol
 _atom_site_label
 _atom_site_symmetry_multiplicity
 _atom_site_fract_x
 _atom_site_fract_y
 _atom_site_fract_z
 _atom_site_occupancy
  Zn  Zn0  1  0.391973  0.783946  0.750000  1
  Zn  Zn1  1  0.608027  0.216054  0.250000  1
  Cr  Cr2  1  0.867107  0.734213  0.070701  1
  Cr  Cr3  1  0.132893  0.265787  0.929299  1
  Cr  Cr4  1  0.867107  0.734213  0.429299  1
  Cr  Cr5  1  0.132893  0.265787  0.570701  1
  O  O6  1  0.231325  0.462650  0.388943  1
  O  O7  1  0.768675  0.537350  0.611057  1
  O  O8  1  0.768675  0.537350  0.888943  1
  O  O9  1  0.231325  0.462650  0.111057  1
  O  O10  1  0.962799  0.925597  0.250000  1
  O  O11  1  0.037201  0.074403  0.750000  1
  O  O12  1  0.500000  0.000000  -0.000000  1
  O  O13  1  0.500000  0.000000  0.500000  1
