# generated using pymatgen
data_Ca(TiS2)8
_symmetry_space_group_name_H-M   'P 1'
_cell_length_a   6.84043793
_cell_length_b   6.84043650
_cell_length_c   13.37710026
_cell_angle_alpha   90.00000000
_cell_angle_beta   90.00000000
_cell_angle_gamma   119.99999571
_symmetry_Int_Tables_number   1
_chemical_formula_structural   Ca(TiS2)8
_chemical_formula_sum   'Ca1 Ti8 S16'
_cell_volume   542.07621867
_cell_formula_units_Z   1
loop_
 _symmetry_equiv_pos_site_id
 _symmetry_equiv_pos_as_xyz
  1  'x, y, z'
loop_
 _atom_site_type_symbol
 _atom_site_label
 _atom_site_symmetry_multiplicity
 _atom_site_fract_x
 _atom_site_fract_y
 _atom_site_fract_z
 _atom_site_occupancy
  Ca  Ca0  1  0.500000  0.500000  0.250000  1
  Ti  Ti1  1  0.002250  0.997749  0.992760  1
  Ti  Ti2  1  0.997749  0.002250  0.507240  1
  Ti  Ti3  1  0.002250  0.504501  0.992760  1
  Ti  Ti4  1  0.997749  0.495499  0.507240  1
  Ti  Ti5  1  0.495499  0.997749  0.992760  1
  Ti  Ti6  1  0.504501  0.002250  0.507240  1
  Ti  Ti7  1  0.500000  0.500000  0.987709  1
  Ti  Ti8  1  0.500000  0.500000  0.512291  1
  S  S9  1  0.333053  0.166107  0.398650  1
  S  S10  1  0.332621  0.165243  0.885687  1
  S  S11  1  0.333053  0.666947  0.398650  1
  S  S12  1  0.332621  0.667379  0.885687  1
  S  S13  1  0.833333  0.166667  0.397938  1
  S  S14  1  0.833333  0.166667  0.889386  1
  S  S15  1  0.833893  0.666947  0.398650  1
  S  S16  1  0.834757  0.667379  0.885687  1
  S  S17  1  0.166107  0.333053  0.101350  1
  S  S18  1  0.165243  0.332621  0.614313  1
  S  S19  1  0.166667  0.833333  0.102062  1
  S  S20  1  0.166667  0.833333  0.610614  1
  S  S21  1  0.666947  0.333053  0.101350  1
  S  S22  1  0.667379  0.332621  0.614313  1
  S  S23  1  0.666947  0.833893  0.101350  1
  S  S24  1  0.667379  0.834757  0.614313  1
