# generated using pymatgen
data_BaCaNiF7
_symmetry_space_group_name_H-M   'P 1'
_cell_length_a   5.69964655
_cell_length_b   9.92422355
_cell_length_c   10.59476783
_cell_angle_alpha   90.00000000
_cell_angle_beta   90.00000000
_cell_angle_gamma   91.77118087
_symmetry_Int_Tables_number   1
_chemical_formula_structural   BaCaNiF7
_chemical_formula_sum   'Ba4 Ca4 Ni4 F28'
_cell_volume   599.00212941
_cell_formula_units_Z   4
loop_
 _symmetry_equiv_pos_site_id
 _symmetry_equiv_pos_as_xyz
  1  'x, y, z'
loop_
 _atom_site_type_symbol
 _atom_site_label
 _atom_site_symmetry_multiplicity
 _atom_site_fract_x
 _atom_site_fract_y
 _atom_site_fract_z
 _atom_site_occupancy
  Ba  Ba0  1  0.262126  0.507231  0.333325  1
  Ba  Ba1  1  0.737874  0.992769  0.833325  1
  Ba  Ba2  1  0.737874  0.492769  0.666675  1
  Ba  Ba3  1  0.262126  0.007231  0.166675  1
  Ca  Ca4  1  0.708394  0.822075  0.407999  1
  Ca  Ca5  1  0.291606  0.677925  0.907999  1
  Ca  Ca6  1  0.708394  0.322075  0.092001  1
  Ca  Ca7  1  0.291606  0.177925  0.592001  1
  Ni  Ni8  1  0.191260  0.807625  0.622285  1
  Ni  Ni9  1  0.808740  0.192375  0.377715  1
  Ni  Ni10  1  0.191260  0.307625  0.877715  1
  Ni  Ni11  1  0.808740  0.692375  0.122285  1
  F  F12  1  0.093385  0.108216  0.421123  1
  F  F13  1  0.343047  0.367651  0.032420  1
  F  F14  1  0.462502  0.737345  0.702352  1
  F  F15  1  0.537498  0.262655  0.297648  1
  F  F16  1  0.907073  0.353555  0.456378  1
  F  F17  1  0.279544  0.476606  0.798938  1
  F  F18  1  0.008515  0.747647  0.773284  1
  F  F19  1  0.092927  0.146445  0.956378  1
  F  F20  1  0.343047  0.867651  0.467580  1
  F  F21  1  0.537498  0.762655  0.202352  1
  F  F22  1  0.093385  0.608216  0.078877  1
  F  F23  1  0.906615  0.891784  0.578877  1
  F  F24  1  0.991485  0.752353  0.273284  1
  F  F25  1  0.386194  0.885170  0.957134  1
  F  F26  1  0.092927  0.646445  0.543622  1
  F  F27  1  0.907073  0.853555  0.043622  1
  F  F28  1  0.991485  0.252353  0.226716  1
  F  F29  1  0.906615  0.391784  0.921123  1
  F  F30  1  0.613806  0.614830  0.457134  1
  F  F31  1  0.656953  0.632349  0.967580  1
  F  F32  1  0.613806  0.114830  0.042866  1
  F  F33  1  0.008515  0.247647  0.726716  1
  F  F34  1  0.386194  0.385170  0.542866  1
  F  F35  1  0.720456  0.023394  0.298938  1
  F  F36  1  0.720456  0.523394  0.201062  1
  F  F37  1  0.279544  0.976606  0.701062  1
  F  F38  1  0.656953  0.132349  0.532420  1
  F  F39  1  0.462502  0.237345  0.797648  1
