# generated using pymatgen
data_Ca(CoO2)2
_symmetry_space_group_name_H-M   'P 1'
_cell_length_a   2.93142010
_cell_length_b   8.79733577
_cell_length_c   10.32060566
_cell_angle_alpha   89.99807427
_cell_angle_beta   90.00014019
_cell_angle_gamma   90.00012084
_symmetry_Int_Tables_number   1
_chemical_formula_structural   Ca(CoO2)2
_chemical_formula_sum   'Ca4 Co8 O16'
_cell_volume   266.15486794
_cell_formula_units_Z   4
loop_
 _symmetry_equiv_pos_site_id
 _symmetry_equiv_pos_as_xyz
  1  'x, y, z'
loop_
 _atom_site_type_symbol
 _atom_site_label
 _atom_site_symmetry_multiplicity
 _atom_site_fract_x
 _atom_site_fract_y
 _atom_site_fract_z
 _atom_site_occupancy
  Ca  Ca0  1  0.749995  0.240621  0.338222  1
  Ca  Ca1  1  0.249997  0.759461  0.661767  1
  Ca  Ca2  1  0.750002  0.740540  0.161786  1
  Ca  Ca3  1  0.249997  0.259383  0.838223  1
  Co  Co4  1  0.249999  0.417112  0.098352  1
  Co  Co5  1  0.750000  0.082875  0.598356  1
  Co  Co6  1  0.250000  0.917152  0.401613  1
  Co  Co7  1  0.750000  0.582867  0.901622  1
  Co  Co8  1  0.750000  0.558828  0.388024  1
  Co  Co9  1  0.249999  0.441186  0.612015  1
  Co  Co10  1  0.750000  0.058816  0.112007  1
  Co  Co11  1  0.250001  0.941163  0.888018  1
  O  O12  1  0.249999  0.922231  0.072732  1
  O  O13  1  0.750001  0.077750  0.927297  1
  O  O14  1  0.250000  0.422247  0.427303  1
  O  O15  1  0.749998  0.577764  0.572723  1
  O  O16  1  0.250000  0.029588  0.711895  1
  O  O17  1  0.749999  0.970437  0.288088  1
  O  O18  1  0.249999  0.529601  0.788100  1
  O  O19  1  0.750000  0.470382  0.211903  1
  O  O20  1  0.250000  0.614930  0.021745  1
  O  O21  1  0.749998  0.385061  0.978232  1
  O  O22  1  0.250001  0.114942  0.478238  1
  O  O23  1  0.749999  0.885077  0.521728  1
  O  O24  1  0.750000  0.800111  0.842535  1
  O  O25  1  0.250001  0.199857  0.157457  1
  O  O26  1  0.250000  0.699884  0.342551  1
  O  O27  1  0.750000  0.300133  0.657469  1
