# generated using pymatgen
data_Mg(CoS2)2
_symmetry_space_group_name_H-M   'P 1'
_cell_length_a   6.99668429
_cell_length_b   6.86128384
_cell_length_c   6.86172807
_cell_angle_alpha   89.16223514
_cell_angle_beta   120.61180982
_cell_angle_gamma   120.62450289
_symmetry_Int_Tables_number   1
_chemical_formula_structural   Mg(CoS2)2
_chemical_formula_sum   'Mg2 Co4 S8'
_cell_volume   230.24729204
_cell_formula_units_Z   2
loop_
 _symmetry_equiv_pos_site_id
 _symmetry_equiv_pos_as_xyz
  1  'x, y, z'
loop_
 _atom_site_type_symbol
 _atom_site_label
 _atom_site_symmetry_multiplicity
 _atom_site_fract_x
 _atom_site_fract_y
 _atom_site_fract_z
 _atom_site_occupancy
  Mg  Mg0  1  0.999997  0.999991  0.999997  1
  Mg  Mg1  1  0.500024  0.000010  0.000019  1
  Co  Co2  1  0.499996  0.999998  0.499996  1
  Co  Co3  1  0.500012  0.500006  0.500011  1
  Co  Co4  1  0.000002  0.499990  0.000002  1
  Co  Co5  1  -0.000001  0.499993  0.500000  1
  S  S6  1  0.034043  0.738585  0.261739  1
  S  S7  1  0.469429  0.735603  0.703366  1
  S  S8  1  0.466097  0.738443  0.261289  1
  S  S9  1  0.969579  0.703534  0.735666  1
  S  S10  1  0.533911  0.261552  0.738717  1
  S  S11  1  0.530565  0.264402  0.296637  1
  S  S12  1  0.030447  0.296459  0.264353  1
  S  S13  1  0.965945  0.261397  0.738251  1
