# generated using pymatgen
data_CaV2O5
_symmetry_space_group_name_H-M   'P 1'
_cell_length_a   3.62512899
_cell_length_b   5.07430901
_cell_length_c   11.53903912
_cell_angle_alpha   89.99800821
_cell_angle_beta   90.00009814
_cell_angle_gamma   89.99996812
_symmetry_Int_Tables_number   1
_chemical_formula_structural   CaV2O5
_chemical_formula_sum   'Ca2 V4 O10'
_cell_volume   212.26090952
_cell_formula_units_Z   2
loop_
 _symmetry_equiv_pos_site_id
 _symmetry_equiv_pos_as_xyz
  1  'x, y, z'
loop_
 _atom_site_type_symbol
 _atom_site_label
 _atom_site_symmetry_multiplicity
 _atom_site_fract_x
 _atom_site_fract_y
 _atom_site_fract_z
 _atom_site_occupancy
  Ca  Ca0  1  0.749999  0.859043  0.249964  1
  Ca  Ca1  1  0.250001  0.140959  0.749966  1
  V  V2  1  0.250003  0.396500  0.097740  1
  V  V3  1  0.749999  0.603426  0.902264  1
  V  V4  1  0.750003  0.603509  0.597732  1
  V  V5  1  0.249996  0.396528  0.402262  1
  O  O6  1  0.750001  0.436634  0.749990  1
  O  O7  1  0.249997  0.563369  0.249992  1
  O  O8  1  0.750000  0.538305  0.073950  1
  O  O9  1  0.249999  0.461633  0.926053  1
  O  O10  1  0.749999  0.538357  0.426052  1
  O  O11  1  0.250000  0.461697  0.573951  1
  O  O12  1  0.249998  0.069315  0.373351  1
  O  O13  1  0.750002  0.930748  0.626691  1
  O  O14  1  0.749999  0.930699  0.873348  1
  O  O15  1  0.249996  0.069277  0.126694  1
