# generated using pymatgen
data_CaCr(PO3)4
_symmetry_space_group_name_H-M   'P 1'
_cell_length_a   7.54670144
_cell_length_b   7.58133154
_cell_length_c   10.39063453
_cell_angle_alpha   99.51506503
_cell_angle_beta   109.72945178
_cell_angle_gamma   108.44489684
_symmetry_Int_Tables_number   1
_chemical_formula_structural   CaCr(PO3)4
_chemical_formula_sum   'Ca2 Cr2 P8 O24'
_cell_volume   505.59557813
_cell_formula_units_Z   2
loop_
 _symmetry_equiv_pos_site_id
 _symmetry_equiv_pos_as_xyz
  1  'x, y, z'
loop_
 _atom_site_type_symbol
 _atom_site_label
 _atom_site_symmetry_multiplicity
 _atom_site_fract_x
 _atom_site_fract_y
 _atom_site_fract_z
 _atom_site_occupancy
  Ca  Ca0  1  0.710248  0.960442  0.751256  1
  Ca  Ca1  1  0.291381  0.039703  0.251907  1
  Cr  Cr2  1  0.500620  0.500023  0.500983  1
  Cr  Cr3  1  0.500678  0.000447  0.001423  1
  P  P4  1  0.505341  0.319846  0.809097  1
  P  P5  1  0.011345  0.696167  0.692768  1
  P  P6  1  0.496475  0.681309  0.193152  1
  P  P7  1  0.989442  0.302490  0.310396  1
  P  P8  1  0.753583  0.720725  0.024472  1
  P  P9  1  0.195045  0.728525  0.477339  1
  P  P10  1  0.248623  0.280785  0.978018  1
  P  P11  1  0.804985  0.270365  0.525179  1
  O  O12  1  0.318415  0.321450  0.851531  1
  O  O13  1  0.973575  0.468430  0.651098  1
  O  O14  1  0.683771  0.679869  0.150970  1
  O  O15  1  0.026363  0.529896  0.351981  1
  O  O16  1  0.702677  0.505514  0.932458  1
  O  O17  1  0.071765  0.769740  0.569603  1
  O  O18  1  0.299096  0.496364  0.069197  1
  O  O19  1  0.928809  0.228745  0.433455  1
  O  O20  1  0.462769  0.348167  0.666087  1
  O  O21  1  0.184444  0.800009  0.836234  1
  O  O22  1  0.537947  0.651973  0.335808  1
  O  O23  1  0.816834  0.198332  0.166825  1
  O  O24  1  0.544514  0.140987  0.832829  1
  O  O25  1  0.806416  0.708540  0.669112  1
  O  O26  1  0.457907  0.860633  0.170044  1
  O  O27  1  0.194676  0.290765  0.334192  1
  O  O28  1  0.621779  0.808949  0.932715  1
  O  O29  1  0.377365  0.691146  0.569402  1
  O  O30  1  0.380699  0.193198  0.070258  1
  O  O31  1  0.623569  0.308717  0.432876  1
  O  O32  1  0.978995  0.829756  0.087289  1
  O  O33  1  0.238504  0.888032  0.412845  1
  O  O34  1  0.023273  0.171161  0.914957  1
  O  O35  1  0.759756  0.110193  0.588858  1
