# generated using pymatgen
data_CaSb3O7
_symmetry_space_group_name_H-M   'P 1'
_cell_length_a   5.66305416
_cell_length_b   10.86901062
_cell_length_c   11.04880845
_cell_angle_alpha   90.00000000
_cell_angle_beta   90.00000000
_cell_angle_gamma   90.00000000
_symmetry_Int_Tables_number   1
_chemical_formula_structural   CaSb3O7
_chemical_formula_sum   'Ca4 Sb12 O28'
_cell_volume   680.07400162
_cell_formula_units_Z   4
loop_
 _symmetry_equiv_pos_site_id
 _symmetry_equiv_pos_as_xyz
  1  'x, y, z'
loop_
 _atom_site_type_symbol
 _atom_site_label
 _atom_site_symmetry_multiplicity
 _atom_site_fract_x
 _atom_site_fract_y
 _atom_site_fract_z
 _atom_site_occupancy
  Ca  Ca0  1  0.676549  0.750000  0.856169  1
  Ca  Ca1  1  0.176549  0.250000  0.643831  1
  Ca  Ca2  1  0.323451  0.250000  0.143831  1
  Ca  Ca3  1  0.823451  0.750000  0.356169  1
  Sb  Sb4  1  0.378113  0.995203  0.370064  1
  Sb  Sb5  1  0.878113  0.004797  0.129936  1
  Sb  Sb6  1  0.621887  0.495203  0.629936  1
  Sb  Sb7  1  0.121887  0.504797  0.870064  1
  Sb  Sb8  1  0.325794  0.750000  0.153258  1
  Sb  Sb9  1  0.825794  0.250000  0.346742  1
  Sb  Sb10  1  0.674206  0.250000  0.846742  1
  Sb  Sb11  1  0.174206  0.750000  0.653258  1
  Sb  Sb12  1  0.878113  0.495203  0.129936  1
  Sb  Sb13  1  0.378113  0.504797  0.370064  1
  Sb  Sb14  1  0.121887  0.995203  0.870064  1
  Sb  Sb15  1  0.621887  0.004797  0.629936  1
  O  O16  1  0.930126  0.130967  0.791008  1
  O  O17  1  0.430126  0.869033  0.708992  1
  O  O18  1  0.069874  0.630967  0.208992  1
  O  O19  1  0.569874  0.369033  0.291008  1
  O  O20  1  0.069874  0.869033  0.208992  1
  O  O21  1  0.569874  0.130967  0.291008  1
  O  O22  1  0.930126  0.369033  0.791008  1
  O  O23  1  0.430126  0.630967  0.708992  1
  O  O24  1  0.449867  0.125648  0.778351  1
  O  O25  1  0.949867  0.874352  0.721649  1
  O  O26  1  0.550133  0.625648  0.221649  1
  O  O27  1  0.050133  0.374352  0.278351  1
  O  O28  1  0.550133  0.874352  0.221649  1
  O  O29  1  0.050133  0.125648  0.278351  1
  O  O30  1  0.449867  0.374352  0.778351  1
  O  O31  1  0.949867  0.625648  0.721649  1
  O  O32  1  0.152127  0.750000  0.482191  1
  O  O33  1  0.652127  0.250000  0.017809  1
  O  O34  1  0.847873  0.250000  0.517809  1
  O  O35  1  0.347873  0.750000  0.982191  1
  O  O36  1  0.149901  0.416842  0.036127  1
  O  O37  1  0.649901  0.583158  0.463873  1
  O  O38  1  0.850099  0.916842  0.963873  1
  O  O39  1  0.350099  0.083158  0.536127  1
  O  O40  1  0.850099  0.583158  0.963873  1
  O  O41  1  0.350099  0.416842  0.536127  1
  O  O42  1  0.149901  0.083158  0.036127  1
  O  O43  1  0.649901  0.916842  0.463873  1
