# generated using pymatgen
data_MgCrF6
_symmetry_space_group_name_H-M   'P 1'
_cell_length_a   5.37738080
_cell_length_b   5.37738119
_cell_length_c   5.37738129
_cell_angle_alpha   58.03309616
_cell_angle_beta   58.03309143
_cell_angle_gamma   58.03308984
_symmetry_Int_Tables_number   1
_chemical_formula_structural   MgCrF6
_chemical_formula_sum   'Mg1 Cr1 F6'
_cell_volume   104.99063036
_cell_formula_units_Z   1
loop_
 _symmetry_equiv_pos_site_id
 _symmetry_equiv_pos_as_xyz
  1  'x, y, z'
loop_
 _atom_site_type_symbol
 _atom_site_label
 _atom_site_symmetry_multiplicity
 _atom_site_fract_x
 _atom_site_fract_y
 _atom_site_fract_z
 _atom_site_occupancy
  Mg  Mg0  1  0.500000  0.500000  0.500000  1
  Cr  Cr1  1  0.000000  0.000000  0.000000  1
  F  F2  1  0.332243  0.147330  0.762490  1
  F  F3  1  0.147330  0.762490  0.332243  1
  F  F4  1  0.237510  0.667757  0.852670  1
  F  F5  1  0.852670  0.237510  0.667757  1
  F  F6  1  0.667757  0.852670  0.237510  1
  F  F7  1  0.762490  0.332243  0.147330  1
