# generated using pymatgen
data_YCr3O9
_symmetry_space_group_name_H-M   'P 1'
_cell_length_a   3.68519619
_cell_length_b   3.68531164
_cell_length_c   11.52105855
_cell_angle_alpha   89.99854068
_cell_angle_beta   89.99997150
_cell_angle_gamma   90.01339159
_symmetry_Int_Tables_number   1
_chemical_formula_structural   YCr3O9
_chemical_formula_sum   'Y1 Cr3 O9'
_cell_volume   156.46860263
_cell_formula_units_Z   1
loop_
 _symmetry_equiv_pos_site_id
 _symmetry_equiv_pos_as_xyz
  1  'x, y, z'
loop_
 _atom_site_type_symbol
 _atom_site_label
 _atom_site_symmetry_multiplicity
 _atom_site_fract_x
 _atom_site_fract_y
 _atom_site_fract_z
 _atom_site_occupancy
  Y  Y0  1  0.000000  0.000000  0.000000  1
  Cr  Cr1  1  0.499998  0.499907  0.184488  1
  Cr  Cr2  1  0.500001  0.500000  0.500000  1
  Cr  Cr3  1  0.500004  0.500093  0.815511  1
  O  O4  1  0.500001  0.499999  0.000000  1
  O  O5  1  0.500001  0.499980  0.327754  1
  O  O6  1  0.500001  0.500018  0.672247  1
  O  O7  1  0.500001  0.999983  0.146977  1
  O  O8  1  0.500001  0.000001  0.500000  1
  O  O9  1  0.500001  0.000019  0.853024  1
  O  O10  1  0.999999  0.500014  0.146967  1
  O  O11  1  0.000000  0.500000  0.500000  1
  O  O12  1  0.000001  0.499986  0.853032  1
