# generated using pymatgen
data_MnP2O7
_symmetry_space_group_name_H-M   'P 1'
_cell_length_a   6.42012024
_cell_length_b   6.86440889
_cell_length_c   6.21724357
_cell_angle_alpha   66.80353221
_cell_angle_beta   83.76184022
_cell_angle_gamma   87.79578891
_symmetry_Int_Tables_number   1
_chemical_formula_structural   MnP2O7
_chemical_formula_sum   'Mn2 P4 O14'
_cell_volume   250.35199082
_cell_formula_units_Z   2
loop_
 _symmetry_equiv_pos_site_id
 _symmetry_equiv_pos_as_xyz
  1  'x, y, z'
loop_
 _atom_site_type_symbol
 _atom_site_label
 _atom_site_symmetry_multiplicity
 _atom_site_fract_x
 _atom_site_fract_y
 _atom_site_fract_z
 _atom_site_occupancy
  Mn  Mn0  1  0.856188  0.714215  0.905439  1
  Mn  Mn1  1  0.143855  0.285641  0.094574  1
  P  P2  1  0.887775  0.854028  0.339959  1
  P  P3  1  0.112245  0.146042  0.660017  1
  P  P4  1  0.629094  0.260505  0.226312  1
  P  P5  1  0.370774  0.739619  0.773811  1
  O  O6  1  0.910831  0.014009  0.772279  1
  O  O7  1  0.089189  0.986001  0.227680  1
  O  O8  1  0.156997  0.290125  0.783419  1
  O  O9  1  0.842952  0.710024  0.216531  1
  O  O10  1  0.102468  0.290977  0.400930  1
  O  O11  1  0.897598  0.709019  0.598977  1
  O  O12  1  0.453377  0.269097  0.073099  1
  O  O13  1  0.546657  0.730736  0.926835  1
  O  O14  1  0.700371  0.016110  0.325146  1
  O  O15  1  0.299649  0.984005  0.675068  1
  O  O16  1  0.827026  0.382365  0.057501  1
  O  O17  1  0.431510  0.670269  0.576769  1
  O  O18  1  0.568450  0.329712  0.423113  1
  O  O19  1  0.172990  0.617503  0.942542  1
