# generated using pymatgen
data_CaCrP2O7
_symmetry_space_group_name_H-M   'P 1'
_cell_length_a   6.48466900
_cell_length_b   6.54037377
_cell_length_c   7.10267709
_cell_angle_alpha   68.08132210
_cell_angle_beta   84.87601997
_cell_angle_gamma   82.35360285
_symmetry_Int_Tables_number   1
_chemical_formula_structural   CaCrP2O7
_chemical_formula_sum   'Ca2 Cr2 P4 O14'
_cell_volume   276.72212002
_cell_formula_units_Z   2
loop_
 _symmetry_equiv_pos_site_id
 _symmetry_equiv_pos_as_xyz
  1  'x, y, z'
loop_
 _atom_site_type_symbol
 _atom_site_label
 _atom_site_symmetry_multiplicity
 _atom_site_fract_x
 _atom_site_fract_y
 _atom_site_fract_z
 _atom_site_occupancy
  Ca  Ca0  1  0.855008  0.274366  0.152317  1
  Ca  Ca1  1  0.144992  0.725634  0.847683  1
  Cr  Cr2  1  0.662289  0.102555  0.761369  1
  Cr  Cr3  1  0.337711  0.897445  0.238631  1
  P  P4  1  0.157652  0.233491  0.737141  1
  P  P5  1  0.842348  0.766509  0.262859  1
  P  P6  1  0.633103  0.635925  0.676384  1
  P  P7  1  0.366897  0.364075  0.323616  1
  O  O8  1  0.778032  0.605562  0.486018  1
  O  O9  1  0.221968  0.394438  0.513982  1
  O  O10  1  0.984837  0.098021  0.724182  1
  O  O11  1  0.015163  0.901979  0.275818  1
  O  O12  1  0.585546  0.267172  0.398000  1
  O  O13  1  0.414454  0.732828  0.602000  1
  O  O14  1  0.359578  0.604492  0.168677  1
  O  O15  1  0.640422  0.395508  0.831322  1
  O  O16  1  0.914325  0.617405  0.144825  1
  O  O17  1  0.085675  0.382595  0.855175  1
  O  O18  1  0.654596  0.939232  0.174990  1
  O  O19  1  0.345404  0.060768  0.825010  1
  O  O20  1  0.257946  0.214448  0.251270  1
  O  O21  1  0.742054  0.785552  0.748730  1
