# generated using pymatgen
data_CaNiO2
_symmetry_space_group_name_H-M   'P 1'
_cell_length_a   3.11792667
_cell_length_b   8.87857670
_cell_length_c   8.10408118
_cell_angle_alpha   96.34973138
_cell_angle_beta   88.30605492
_cell_angle_gamma   70.21026770
_symmetry_Int_Tables_number   1
_chemical_formula_structural   CaNiO2
_chemical_formula_sum   'Ca4 Ni4 O8'
_cell_volume   209.25966038
_cell_formula_units_Z   4
loop_
 _symmetry_equiv_pos_site_id
 _symmetry_equiv_pos_as_xyz
  1  'x, y, z'
loop_
 _atom_site_type_symbol
 _atom_site_label
 _atom_site_symmetry_multiplicity
 _atom_site_fract_x
 _atom_site_fract_y
 _atom_site_fract_z
 _atom_site_occupancy
  Ca  Ca0  1  0.208419  0.040173  0.225771  1
  Ca  Ca1  1  0.789545  0.939674  0.802183  1
  Ca  Ca2  1  0.049586  0.668355  0.085027  1
  Ca  Ca3  1  -0.052923  0.311654  0.943350  1
  Ni  Ni4  1  0.615019  0.209996  0.581407  1
  Ni  Ni5  1  0.331270  0.375971  0.275840  1
  Ni  Ni6  1  0.664914  0.603887  0.752836  1
  Ni  Ni7  1  0.378442  0.769453  0.446762  1
  O  O8  1  0.870701  0.723901  0.594035  1
  O  O9  1  0.289608  0.479585  0.832660  1
  O  O10  1  0.706770  0.500399  0.195770  1
  O  O11  1  0.122585  0.256089  0.433947  1
  O  O12  1  0.132278  0.119569  0.714616  1
  O  O13  1  0.575184  0.177815  0.087606  1
  O  O14  1  0.864761  0.860603  0.313312  1
  O  O15  1  0.422115  0.802210  0.940492  1
