# generated using pymatgen
data_AlCuO3
_symmetry_space_group_name_H-M   'P 1'
_cell_length_a   5.64861590
_cell_length_b   5.64861565
_cell_length_c   10.48877262
_cell_angle_alpha   90.00000000
_cell_angle_beta   90.00000000
_cell_angle_gamma   120.00000145
_symmetry_Int_Tables_number   1
_chemical_formula_structural   AlCuO3
_chemical_formula_sum   'Al6 Cu6 O18'
_cell_volume   289.82734963
_cell_formula_units_Z   6
loop_
 _symmetry_equiv_pos_site_id
 _symmetry_equiv_pos_as_xyz
  1  'x, y, z'
loop_
 _atom_site_type_symbol
 _atom_site_label
 _atom_site_symmetry_multiplicity
 _atom_site_fract_x
 _atom_site_fract_y
 _atom_site_fract_z
 _atom_site_occupancy
  Al  Al0  1  0.666667  0.333333  0.237412  1
  Al  Al1  1  0.333333  0.666667  0.737412  1
  Al  Al2  1  0.666667  0.333333  0.737412  1
  Al  Al3  1  0.333333  0.666667  0.237412  1
  Al  Al4  1  0.000000  0.000000  0.761126  1
  Al  Al5  1  0.000000  0.000000  0.261126  1
  Cu  Cu6  1  0.669679  0.000000  0.500354  1
  Cu  Cu7  1  0.669679  0.669679  0.000354  1
  Cu  Cu8  1  0.000000  0.330321  0.000354  1
  Cu  Cu9  1  1.000000  0.669679  0.500354  1
  Cu  Cu10  1  0.330321  0.330321  0.500354  1
  Cu  Cu11  1  0.330321  0.000000  0.000354  1
  O  O12  1  0.666667  0.333333  0.042961  1
  O  O13  1  0.333333  0.666667  0.542961  1
  O  O14  1  0.666667  0.333333  0.542961  1
  O  O15  1  0.333333  0.666667  0.042961  1
  O  O16  1  0.000000  0.000000  0.941740  1
  O  O17  1  0.000000  0.000000  0.441740  1
  O  O18  1  0.400825  0.000000  0.827295  1
  O  O19  1  0.400825  0.400825  0.327295  1
  O  O20  1  1.000000  0.599175  0.327295  1
  O  O21  1  0.000000  0.400825  0.827295  1
  O  O22  1  0.599175  0.599175  0.827295  1
  O  O23  1  0.599175  0.000000  0.327295  1
  O  O24  1  0.288547  0.000000  0.176148  1
  O  O25  1  0.288547  0.288547  0.676148  1
  O  O26  1  1.000000  0.711453  0.676148  1
  O  O27  1  0.000000  0.288547  0.176148  1
  O  O28  1  0.711453  0.711453  0.176148  1
  O  O29  1  0.711453  0.000000  0.676148  1
