# generated using pymatgen
data_W4O9
_symmetry_space_group_name_H-M   'P 1'
_cell_length_a   3.86989413
_cell_length_b   9.69067999
_cell_length_c   9.69661303
_cell_angle_alpha   90.02740839
_cell_angle_beta   89.99984227
_cell_angle_gamma   90.00031189
_symmetry_Int_Tables_number   1
_chemical_formula_structural   W4O9
_chemical_formula_sum   'W8 O18'
_cell_volume   363.64142500
_cell_formula_units_Z   2
loop_
 _symmetry_equiv_pos_site_id
 _symmetry_equiv_pos_as_xyz
  1  'x, y, z'
loop_
 _atom_site_type_symbol
 _atom_site_label
 _atom_site_symmetry_multiplicity
 _atom_site_fract_x
 _atom_site_fract_y
 _atom_site_fract_z
 _atom_site_occupancy
  W  W0  1  0.500113  0.534180  0.336813  1
  W  W1  1  0.499886  0.837062  0.465744  1
  W  W2  1  0.500156  0.336759  0.965823  1
  W  W3  1  0.499854  0.033415  0.836937  1
  W  W4  1  0.500146  0.966476  0.162982  1
  W  W5  1  0.500123  0.163285  0.534183  1
  W  W6  1  0.499882  0.466127  0.663143  1
  W  W7  1  0.499834  0.662948  0.034253  1
  O  O8  1  0.499992  0.750652  0.250275  1
  O  O9  1  0.500012  0.249105  0.749718  1
  O  O10  1  0.999862  0.665030  0.033370  1
  O  O11  1  0.999903  0.467046  0.666135  1
  O  O12  1  0.999882  0.031839  0.834491  1
  O  O13  1  0.999910  0.834165  0.467144  1
  O  O14  1  0.000128  0.334169  0.966820  1
  O  O15  1  0.000092  0.533359  0.333817  1
  O  O16  1  0.000124  0.968131  0.165733  1
  O  O17  1  0.000101  0.166320  0.532664  1
  O  O18  1  0.500065  0.027078  0.366886  1
  O  O19  1  0.500076  0.132949  0.026560  1
  O  O20  1  0.500040  0.367368  0.473436  1
  O  O21  1  0.500039  0.472872  0.132756  1
  O  O22  1  0.499950  0.526814  0.867361  1
  O  O23  1  0.499932  0.866668  0.973458  1
  O  O24  1  0.499956  0.632983  0.526542  1
  O  O25  1  0.499949  0.973199  0.632954  1
