# generated using pymatgen
data_YCu3(WO4)6
_symmetry_space_group_name_H-M   'P 1'
_cell_length_a   14.76014327
_cell_length_b   6.30486381
_cell_length_c   6.13584189
_cell_angle_alpha   110.99178928
_cell_angle_beta   116.70577236
_cell_angle_gamma   92.85567214
_symmetry_Int_Tables_number   1
_chemical_formula_structural   YCu3(WO4)6
_chemical_formula_sum   'Y1 Cu3 W6 O24'
_cell_volume   460.77587507
_cell_formula_units_Z   1
loop_
 _symmetry_equiv_pos_site_id
 _symmetry_equiv_pos_as_xyz
  1  'x, y, z'
loop_
 _atom_site_type_symbol
 _atom_site_label
 _atom_site_symmetry_multiplicity
 _atom_site_fract_x
 _atom_site_fract_y
 _atom_site_fract_z
 _atom_site_occupancy
  Y  Y0  1  0.874786  0.723110  0.098720  1
  Cu  Cu1  1  0.043240  0.224236  0.103858  1
  Cu  Cu2  1  0.374856  0.223007  0.099754  1
  Cu  Cu3  1  0.706824  0.222930  0.095813  1
  W  W4  1  0.291784  0.405108  0.604460  1
  W  W5  1  0.612608  0.380723  0.577077  1
  W  W6  1  0.961585  0.405627  0.604362  1
  W  W7  1  0.137285  0.066009  0.621805  1
  W  W8  1  0.458355  0.041497  0.595645  1
  W  W9  1  0.787853  0.039620  0.594567  1
  O  O10  1  0.042063  0.688564  0.807378  1
  O  O11  1  0.373196  0.689782  0.798085  1
  O  O12  1  0.712190  0.662403  0.790008  1
  O  O13  1  0.175835  0.442126  0.323139  1
  O  O14  1  0.506915  0.434755  0.307400  1
  O  O15  1  0.849442  0.445234  0.311544  1
  O  O16  1  0.051569  0.217441  0.802616  1
  O  O17  1  0.383893  0.208582  0.795526  1
  O  O18  1  0.719310  0.208058  0.798650  1
  O  O19  1  0.183403  0.043556  0.385153  1
  O  O20  1  0.518753  0.040320  0.380992  1
  O  O21  1  0.853613  0.034460  0.386040  1
  O  O22  1  0.242685  0.011419  0.891575  1
  O  O23  1  0.574535  0.005530  0.877259  1
  O  O24  1  0.899564  0.999520  0.887759  1
  O  O25  1  0.037275  0.784981  0.408533  1
  O  O26  1  0.377375  0.756894  0.403392  1
  O  O27  1  0.706278  0.757891  0.389186  1
  O  O28  1  0.030557  0.239186  0.400687  1
  O  O29  1  0.366030  0.237612  0.404310  1
  O  O30  1  0.698610  0.229630  0.397238  1
  O  O31  1  0.231261  0.406131  0.818735  1
  O  O32  1  0.566481  0.403376  0.813805  1
  O  O33  1  0.896427  0.410442  0.814255  1
