# generated using pymatgen
data_ZnCr2CoO7
_symmetry_space_group_name_H-M   'P 1'
_cell_length_a   6.48188738
_cell_length_b   11.80018886
_cell_length_c   14.52070781
_cell_angle_alpha   90.00000000
_cell_angle_beta   90.00000000
_cell_angle_gamma   102.20013625
_symmetry_Int_Tables_number   1
_chemical_formula_structural   ZnCr2CoO7
_chemical_formula_sum   'Zn8 Cr16 Co8 O56'
_cell_volume   1085.56891632
_cell_formula_units_Z   8
loop_
 _symmetry_equiv_pos_site_id
 _symmetry_equiv_pos_as_xyz
  1  'x, y, z'
loop_
 _atom_site_type_symbol
 _atom_site_label
 _atom_site_symmetry_multiplicity
 _atom_site_fract_x
 _atom_site_fract_y
 _atom_site_fract_z
 _atom_site_occupancy
  Zn  Zn0  1  0.046593  0.769513  0.512755  1
  Zn  Zn1  1  0.305271  0.913167  0.885428  1
  Zn  Zn2  1  0.694729  0.586833  0.385428  1
  Zn  Zn3  1  0.694729  0.086833  0.114572  1
  Zn  Zn4  1  0.305271  0.413167  0.614572  1
  Zn  Zn5  1  0.046593  0.269513  0.987245  1
  Zn  Zn6  1  0.953407  0.230487  0.487245  1
  Zn  Zn7  1  0.953407  0.730487  0.012755  1
  Cr  Cr8  1  0.829996  0.994244  0.894230  1
  Cr  Cr9  1  0.430826  0.686892  0.017934  1
  Cr  Cr10  1  0.430826  0.186892  0.482066  1
  Cr  Cr11  1  0.569174  0.313108  0.982066  1
  Cr  Cr12  1  0.494877  0.775663  0.706401  1
  Cr  Cr13  1  0.505123  0.724337  0.206401  1
  Cr  Cr14  1  0.505123  0.224337  0.293599  1
  Cr  Cr15  1  0.494877  0.275663  0.793599  1
  Cr  Cr16  1  0.569174  0.813108  0.517934  1
  Cr  Cr17  1  0.868091  0.486276  0.139805  1
  Cr  Cr18  1  0.131909  0.013724  0.639805  1
  Cr  Cr19  1  0.131909  0.513724  0.860195  1
  Cr  Cr20  1  0.170004  0.505756  0.394230  1
  Cr  Cr21  1  0.829996  0.494244  0.605770  1
  Cr  Cr22  1  0.170004  0.005756  0.105770  1
  Cr  Cr23  1  0.868091  0.986276  0.360195  1
  Co  Co24  1  0.634242  0.070656  0.660454  1
  Co  Co25  1  0.365758  0.429344  0.160454  1
  Co  Co26  1  0.365758  0.929344  0.339546  1
  Co  Co27  1  0.634242  0.570656  0.839546  1
  Co  Co28  1  0.991834  0.238360  0.764079  1
  Co  Co29  1  0.008166  0.261640  0.264079  1
  Co  Co30  1  0.008166  0.761640  0.235921  1
  Co  Co31  1  0.991834  0.738360  0.735921  1
  O  O32  1  0.756990  0.979998  0.002443  1
  O  O33  1  0.243010  0.520002  0.502443  1
  O  O34  1  0.243010  0.020002  0.997557  1
  O  O35  1  0.756990  0.479998  0.497557  1
  O  O36  1  0.984678  0.901139  0.862881  1
  O  O37  1  0.015322  0.598861  0.362881  1
  O  O38  1  0.015322  0.098861  0.137119  1
  O  O39  1  0.984678  0.401139  0.637119  1
  O  O40  1  0.963790  0.132129  0.878423  1
  O  O41  1  0.036210  0.367871  0.378423  1
  O  O42  1  0.036210  0.867871  0.121577  1
  O  O43  1  0.963790  0.632129  0.621577  1
  O  O44  1  0.661698  0.956556  0.285310  1
  O  O45  1  0.338302  0.543444  0.785310  1
  O  O46  1  0.338302  0.043444  0.714690  1
  O  O47  1  0.661698  0.456556  0.214690  1
  O  O48  1  0.962402  0.136842  0.367309  1
  O  O49  1  0.037598  0.363158  0.867309  1
  O  O50  1  0.037598  0.863158  0.632691  1
  O  O51  1  0.962402  0.636842  0.132691  1
  O  O52  1  0.052326  0.902745  0.329160  1
  O  O53  1  0.332118  0.821594  0.456137  1
  O  O54  1  0.947674  0.597255  0.829160  1
  O  O55  1  0.052326  0.402745  0.170840  1
  O  O56  1  0.745577  0.722415  0.473953  1
  O  O57  1  0.254423  0.777585  0.973953  1
  O  O58  1  0.254423  0.277585  0.526047  1
  O  O59  1  0.745577  0.222415  0.026047  1
  O  O60  1  0.765051  0.947909  0.467296  1
  O  O61  1  0.234949  0.552091  0.967296  1
  O  O62  1  0.234949  0.052091  0.532704  1
  O  O63  1  0.765051  0.447909  0.032704  1
  O  O64  1  0.421082  0.196489  0.893073  1
  O  O65  1  0.578918  0.303511  0.393073  1
  O  O66  1  0.578918  0.803511  0.106927  1
  O  O67  1  0.421082  0.696489  0.606927  1
  O  O68  1  0.690809  0.223407  0.740149  1
  O  O69  1  0.309191  0.276593  0.240149  1
  O  O70  1  0.309191  0.776593  0.259851  1
  O  O71  1  0.690809  0.723407  0.759851  1
  O  O72  1  0.605710  0.466992  0.667813  1
  O  O73  1  0.394290  0.033008  0.167813  1
  O  O74  1  0.394290  0.533008  0.332187  1
  O  O75  1  0.605710  0.966992  0.832187  1
  O  O76  1  0.285458  0.295855  0.728422  1
  O  O77  1  0.714542  0.204145  0.228422  1
  O  O78  1  0.714542  0.704145  0.271578  1
  O  O79  1  0.285458  0.795855  0.771578  1
  O  O80  1  0.594443  0.397543  0.870244  1
  O  O81  1  0.405557  0.102457  0.370244  1
  O  O82  1  0.405557  0.602457  0.129756  1
  O  O83  1  0.594443  0.897543  0.629756  1
  O  O84  1  0.332118  0.321594  0.043863  1
  O  O85  1  0.667882  0.178406  0.543863  1
  O  O86  1  0.667882  0.678406  0.956137  1
  O  O87  1  0.947674  0.097255  0.670840  1
