# generated using pymatgen
data_Sr2Cu2SbO7
_symmetry_space_group_name_H-M   'P 1'
_cell_length_a   5.17662765
_cell_length_b   5.23620623
_cell_length_c   13.76975224
_cell_angle_alpha   100.94715246
_cell_angle_beta   100.63244212
_cell_angle_gamma   90.08214344
_symmetry_Int_Tables_number   1
_chemical_formula_structural   Sr2Cu2SbO7
_chemical_formula_sum   'Sr4 Cu4 Sb2 O14'
_cell_volume   359.90050994
_cell_formula_units_Z   2
loop_
 _symmetry_equiv_pos_site_id
 _symmetry_equiv_pos_as_xyz
  1  'x, y, z'
loop_
 _atom_site_type_symbol
 _atom_site_label
 _atom_site_symmetry_multiplicity
 _atom_site_fract_x
 _atom_site_fract_y
 _atom_site_fract_z
 _atom_site_occupancy
  Sr  Sr0  1  0.340130  0.359168  0.721999  1
  Sr  Sr1  1  0.621666  0.640640  0.278424  1
  Sr  Sr2  1  0.840204  0.862443  0.722040  1
  Sr  Sr3  1  0.121646  0.137305  0.278448  1
  Cu  Cu4  1  0.918925  0.440941  0.880697  1
  Cu  Cu5  1  0.044075  0.558815  0.119792  1
  Cu  Cu6  1  0.418756  0.939814  0.880798  1
  Cu  Cu7  1  0.544123  0.060202  0.119819  1
  Sb  Sb8  1  0.269069  0.732349  0.500302  1
  Sb  Sb9  1  0.767719  0.266477  0.500232  1
  O  O10  1  0.147866  0.363165  0.500305  1
  O  O11  1  0.648646  0.635867  0.500315  1
  O  O12  1  0.154711  0.175322  0.850605  1
  O  O13  1  0.309346  0.824390  0.150475  1
  O  O14  1  0.653951  0.174333  0.850172  1
  O  O15  1  0.809619  0.824794  0.149998  1
  O  O16  1  0.652425  0.674307  0.849193  1
  O  O17  1  0.809675  0.326392  0.151933  1
  O  O18  1  0.152988  0.675105  0.848719  1
  O  O19  1  0.309032  0.325125  0.151408  1
  O  O20  1  0.300931  0.836067  0.649566  1
  O  O21  1  0.654604  0.163994  0.350868  1
  O  O22  1  0.801549  0.313188  0.649652  1
  O  O23  1  0.154043  0.687039  0.351147  1
