# generated using pymatgen
data_BaYW4O7
_symmetry_space_group_name_H-M   'P 1'
_cell_length_a   6.35929519
_cell_length_b   6.35929460
_cell_length_c   11.50497149
_cell_angle_alpha   90.00000000
_cell_angle_beta   90.00000000
_cell_angle_gamma   119.99999871
_symmetry_Int_Tables_number   1
_chemical_formula_structural   BaYW4O7
_chemical_formula_sum   'Ba2 Y2 W8 O14'
_cell_volume   402.93418398
_cell_formula_units_Z   2
loop_
 _symmetry_equiv_pos_site_id
 _symmetry_equiv_pos_as_xyz
  1  'x, y, z'
loop_
 _atom_site_type_symbol
 _atom_site_label
 _atom_site_symmetry_multiplicity
 _atom_site_fract_x
 _atom_site_fract_y
 _atom_site_fract_z
 _atom_site_occupancy
  Ba  Ba0  1  0.666667  0.333333  0.468739  1
  Ba  Ba1  1  0.333333  0.666667  0.968739  1
  Y  Y2  1  0.666667  0.333333  0.853508  1
  Y  Y3  1  0.333333  0.666667  0.353508  1
  W  W4  1  0.832168  0.167833  0.172646  1
  W  W5  1  0.664332  0.832167  0.672647  1
  W  W6  1  0.167833  0.335668  0.672647  1
  W  W7  1  0.832168  0.664332  0.172646  1
  W  W8  1  0.335667  0.167833  0.172646  1
  W  W9  1  0.167833  0.832167  0.672647  1
  W  W10  1  0.000000  0.000000  0.491391  1
  W  W11  1  0.000000  0.000000  0.991391  1
  O  O12  1  0.819930  0.180071  0.989404  1
  O  O13  1  0.639858  0.819929  0.489403  1
  O  O14  1  0.180070  0.360141  0.489403  1
  O  O15  1  0.819931  0.639859  0.989404  1
  O  O16  1  0.360141  0.180071  0.989404  1
  O  O17  1  0.180070  0.819929  0.489403  1
  O  O18  1  0.000000  0.000000  0.790635  1
  O  O19  1  0.000000  0.000000  0.290636  1
  O  O20  1  0.518946  0.481056  0.281191  1
  O  O21  1  0.037891  0.518946  0.781191  1
  O  O22  1  0.481055  0.962109  0.781191  1
  O  O23  1  0.518946  0.037891  0.281191  1
  O  O24  1  0.481056  0.518946  0.781191  1
  O  O25  1  0.962109  0.481056  0.281191  1
