# generated using pymatgen
data_CaTiBi(PO4)3
_symmetry_space_group_name_H-M   'P 1'
_cell_length_a   9.08170297
_cell_length_b   9.08170376
_cell_length_c   9.08170335
_cell_angle_alpha   59.93582702
_cell_angle_beta   59.93582780
_cell_angle_gamma   59.93583123
_symmetry_Int_Tables_number   1
_chemical_formula_structural   CaTiBi(PO4)3
_chemical_formula_sum   'Ca2 Ti2 Bi2 P6 O24'
_cell_volume   528.87660695
_cell_formula_units_Z   2
loop_
 _symmetry_equiv_pos_site_id
 _symmetry_equiv_pos_as_xyz
  1  'x, y, z'
loop_
 _atom_site_type_symbol
 _atom_site_label
 _atom_site_symmetry_multiplicity
 _atom_site_fract_x
 _atom_site_fract_y
 _atom_site_fract_z
 _atom_site_occupancy
  Ca  Ca0  1  0.997572  0.997572  0.997572  1
  Ca  Ca1  1  0.497572  0.497572  0.497572  1
  Ti  Ti2  1  0.152303  0.152303  0.152303  1
  Ti  Ti3  1  0.652303  0.652303  0.652303  1
  Bi  Bi4  1  0.348071  0.348071  0.348071  1
  Bi  Bi5  1  0.848071  0.848071  0.848071  1
  P  P6  1  0.041006  0.439620  0.768651  1
  P  P7  1  0.439620  0.768651  0.041006  1
  P  P8  1  0.768651  0.041006  0.439620  1
  P  P9  1  0.268651  0.939620  0.541006  1
  P  P10  1  0.541006  0.268651  0.939620  1
  P  P11  1  0.939620  0.541006  0.268651  1
  O  O12  1  0.073853  0.520331  0.335670  1
  O  O13  1  0.335670  0.073853  0.520331  1
  O  O14  1  0.047193  0.257288  0.926976  1
  O  O15  1  0.520331  0.335670  0.073853  1
  O  O16  1  0.020331  0.573853  0.835670  1
  O  O17  1  0.220530  0.423763  0.609716  1
  O  O18  1  0.257288  0.926976  0.047193  1
  O  O19  1  0.423763  0.609716  0.220530  1
  O  O20  1  0.212096  0.006108  0.369250  1
  O  O21  1  0.609716  0.220530  0.423763  1
  O  O22  1  0.109716  0.923763  0.720530  1
  O  O23  1  0.369250  0.212096  0.006108  1
  O  O24  1  0.573853  0.835670  0.020331  1
  O  O25  1  0.926976  0.047193  0.257288  1
  O  O26  1  0.426976  0.757288  0.547193  1
  O  O27  1  0.835670  0.020331  0.573853  1
  O  O28  1  0.547193  0.426976  0.757288  1
  O  O29  1  0.720530  0.109716  0.923763  1
  O  O30  1  0.757288  0.547193  0.426976  1
  O  O31  1  0.006108  0.369250  0.212096  1
  O  O32  1  0.506108  0.712096  0.869250  1
  O  O33  1  0.923763  0.720530  0.109716  1
  O  O34  1  0.712096  0.869250  0.506108  1
  O  O35  1  0.869250  0.506108  0.712096  1
