# generated using pymatgen
data_Mg3Ni2(GeO4)3
_symmetry_space_group_name_H-M   'P 1'
_cell_length_a   10.35979882
_cell_length_b   10.35979831
_cell_length_c   10.35979844
_cell_angle_alpha   109.47122090
_cell_angle_beta   109.47121991
_cell_angle_gamma   109.47121990
_symmetry_Int_Tables_number   1
_chemical_formula_structural   Mg3Ni2(GeO4)3
_chemical_formula_sum   'Mg12 Ni8 Ge12 O48'
_cell_volume   855.91777182
_cell_formula_units_Z   4
loop_
 _symmetry_equiv_pos_site_id
 _symmetry_equiv_pos_as_xyz
  1  'x, y, z'
loop_
 _atom_site_type_symbol
 _atom_site_label
 _atom_site_symmetry_multiplicity
 _atom_site_fract_x
 _atom_site_fract_y
 _atom_site_fract_z
 _atom_site_occupancy
  Mg  Mg0  1  0.625000  0.250000  0.875000  1
  Mg  Mg1  1  0.875000  0.750000  0.625000  1
  Mg  Mg2  1  0.750000  0.625000  0.875000  1
  Mg  Mg3  1  0.250000  0.875000  0.625000  1
  Mg  Mg4  1  0.875000  0.625000  0.250000  1
  Mg  Mg5  1  0.625000  0.875000  0.750000  1
  Mg  Mg6  1  0.375000  0.750000  0.125000  1
  Mg  Mg7  1  0.125000  0.250000  0.375000  1
  Mg  Mg8  1  0.250000  0.375000  0.125000  1
  Mg  Mg9  1  0.750000  0.125000  0.375000  1
  Mg  Mg10  1  0.125000  0.375000  0.750000  1
  Mg  Mg11  1  0.375000  0.125000  0.250000  1
  Ni  Ni12  1  0.500000  0.500000  0.500000  1
  Ni  Ni13  1  0.500000  0.500000  0.000000  1
  Ni  Ni14  1  0.500000  0.000000  0.500000  1
  Ni  Ni15  1  0.000000  0.500000  0.500000  1
  Ni  Ni16  1  0.500000  0.000000  0.000000  1
  Ni  Ni17  1  0.000000  0.000000  0.500000  1
  Ni  Ni18  1  0.000000  0.500000  0.000000  1
  Ni  Ni19  1  0.000000  0.000000  0.000000  1
  Ge  Ge20  1  0.875000  0.125000  0.750000  1
  Ge  Ge21  1  0.125000  0.875000  0.250000  1
  Ge  Ge22  1  0.250000  0.625000  0.375000  1
  Ge  Ge23  1  0.125000  0.750000  0.875000  1
  Ge  Ge24  1  0.750000  0.875000  0.125000  1
  Ge  Ge25  1  0.375000  0.250000  0.625000  1
  Ge  Ge26  1  0.625000  0.750000  0.375000  1
  Ge  Ge27  1  0.875000  0.250000  0.125000  1
  Ge  Ge28  1  0.250000  0.125000  0.875000  1
  Ge  Ge29  1  0.750000  0.375000  0.625000  1
  Ge  Ge30  1  0.375000  0.625000  0.750000  1
  Ge  Ge31  1  0.625000  0.375000  0.250000  1
  O  O32  1  0.789303  0.417793  0.819856  1
  O  O33  1  0.082207  0.871510  0.402064  1
  O  O34  1  0.680144  0.097936  0.969445  1
  O  O35  1  0.710697  0.530555  0.628490  1
  O  O36  1  0.710697  0.680144  0.082207  1
  O  O37  1  0.530555  0.628490  0.710697  1
  O  O38  1  0.097936  0.628490  0.417793  1
  O  O39  1  0.628490  0.710697  0.530555  1
  O  O40  1  0.402064  0.819856  0.530555  1
  O  O41  1  0.871510  0.969445  0.789303  1
  O  O42  1  0.969445  0.789303  0.871510  1
  O  O43  1  0.082207  0.710697  0.680144  1
  O  O44  1  0.628490  0.417793  0.097936  1
  O  O45  1  0.530555  0.402064  0.819856  1
  O  O46  1  0.680144  0.082207  0.710697  1
  O  O47  1  0.417793  0.097936  0.628490  1
  O  O48  1  0.819856  0.530555  0.402064  1
  O  O49  1  0.402064  0.082207  0.871510  1
  O  O50  1  0.097936  0.969445  0.680144  1
  O  O51  1  0.597936  0.180144  0.469445  1
  O  O52  1  0.969445  0.680144  0.097936  1
  O  O53  1  0.819856  0.789303  0.417793  1
  O  O54  1  0.871510  0.402064  0.082207  1
  O  O55  1  0.789303  0.871510  0.969445  1
  O  O56  1  0.210697  0.582207  0.180144  1
  O  O57  1  0.917793  0.128490  0.597936  1
  O  O58  1  0.319856  0.902064  0.030555  1
  O  O59  1  0.289303  0.469445  0.371510  1
  O  O60  1  0.289303  0.319856  0.917793  1
  O  O61  1  0.469445  0.371510  0.289303  1
  O  O62  1  0.902064  0.371510  0.582207  1
  O  O63  1  0.371510  0.289303  0.469445  1
  O  O64  1  0.210697  0.128490  0.030555  1
  O  O65  1  0.128490  0.597936  0.917793  1
  O  O66  1  0.180144  0.210697  0.582207  1
  O  O67  1  0.582207  0.180144  0.210697  1
  O  O68  1  0.030555  0.319856  0.902064  1
  O  O69  1  0.902064  0.030555  0.319856  1
  O  O70  1  0.597936  0.917793  0.128490  1
  O  O71  1  0.180144  0.469445  0.597936  1
  O  O72  1  0.582207  0.902064  0.371510  1
  O  O73  1  0.319856  0.917793  0.289303  1
  O  O74  1  0.469445  0.597936  0.180144  1
  O  O75  1  0.371510  0.582207  0.902064  1
  O  O76  1  0.917793  0.289303  0.319856  1
  O  O77  1  0.030555  0.210697  0.128490  1
  O  O78  1  0.128490  0.030555  0.210697  1
  O  O79  1  0.417793  0.819856  0.789303  1
