# generated using pymatgen
data_Ba2V2ZnCuF14
_symmetry_space_group_name_H-M   'P 1'
_cell_length_a   5.29126661
_cell_length_b   7.59902246
_cell_length_c   14.81797741
_cell_angle_alpha   91.67475222
_cell_angle_beta   89.70017833
_cell_angle_gamma   110.41828070
_symmetry_Int_Tables_number   1
_chemical_formula_structural   Ba2V2ZnCuF14
_chemical_formula_sum   'Ba4 V4 Zn2 Cu2 F28'
_cell_volume   558.12742832
_cell_formula_units_Z   2
loop_
 _symmetry_equiv_pos_site_id
 _symmetry_equiv_pos_as_xyz
  1  'x, y, z'
loop_
 _atom_site_type_symbol
 _atom_site_label
 _atom_site_symmetry_multiplicity
 _atom_site_fract_x
 _atom_site_fract_y
 _atom_site_fract_z
 _atom_site_occupancy
  Ba  Ba0  1  0.101825  0.368108  0.624230  1
  Ba  Ba1  1  0.266435  0.369303  0.124982  1
  Ba  Ba2  1  0.894712  0.632372  0.375704  1
  Ba  Ba3  1  0.737297  0.630355  0.876579  1
  V  V4  1  0.100346  0.239303  0.874372  1
  V  V5  1  0.899699  0.759899  0.126349  1
  V  V6  1  0.138946  0.240372  0.373593  1
  V  V7  1  0.858853  0.761585  0.627039  1
  Zn  Zn8  1  0.440959  -0.000424  0.750724  1
  Zn  Zn9  1  0.559128  -0.000202  0.250248  1
  Cu  Cu10  1  0.501665  -0.000172  0.000131  1
  Cu  Cu11  1  0.499199  0.000251  0.500427  1
  F  F12  1  0.886456  0.992439  0.337066  1
  F  F13  1  0.870819  0.283899  0.455378  1
  F  F14  1  0.125350  0.716800  0.545898  1
  F  F15  1  0.637516  0.504980  0.597027  1
  F  F16  1  0.607242  0.095047  0.623242  1
  F  F17  1  0.517232  0.903848  0.877975  1
  F  F18  1  0.416916  0.283160  0.955402  1
  F  F19  1  0.899073  0.008175  0.162834  1
  F  F20  1  0.358981  0.340086  0.776773  1
  F  F21  1  0.360241  0.496830  0.405213  1
  F  F22  1  0.800314  0.221440  0.788150  1
  F  F23  1  0.136274  0.495779  0.903960  1
  F  F24  1  0.418459  0.221664  0.288717  1
  F  F25  1  0.200452  0.779958  0.212438  1
  F  F26  1  0.487118  0.096553  0.122468  1
  F  F27  1  0.638272  0.657792  0.224766  1
  F  F28  1  0.121325  0.844659  0.014232  1
  F  F29  1  0.106552  0.008682  0.662949  1
  F  F30  1  0.882106  0.155349  0.984197  1
  F  F31  1  0.718331  0.844193  0.515043  1
  F  F32  1  0.586398  0.716037  0.044747  1
  F  F33  1  0.580888  0.778135  0.712492  1
  F  F34  1  0.978120  0.342838  0.275297  1
  F  F35  1  0.276796  0.155150  0.486414  1
  F  F36  1  0.387908  0.904604  0.378232  1
  F  F37  1  0.103393  0.991894  0.836407  1
  F  F38  1  0.022600  0.659760  0.724909  1
  F  F39  1  0.867208  0.503928  0.095712  1
