# generated using pymatgen
data_CaSi4NiO10
_symmetry_space_group_name_H-M   'P 1'
_cell_length_a   7.42214662
_cell_length_b   7.41527239
_cell_length_c   15.34914473
_cell_angle_alpha   90.00000000
_cell_angle_beta   90.00000000
_cell_angle_gamma   89.93775437
_symmetry_Int_Tables_number   1
_chemical_formula_structural   CaSi4NiO10
_chemical_formula_sum   'Ca4 Si16 Ni4 O40'
_cell_volume   844.77404801
_cell_formula_units_Z   4
loop_
 _symmetry_equiv_pos_site_id
 _symmetry_equiv_pos_as_xyz
  1  'x, y, z'
loop_
 _atom_site_type_symbol
 _atom_site_label
 _atom_site_symmetry_multiplicity
 _atom_site_fract_x
 _atom_site_fract_y
 _atom_site_fract_z
 _atom_site_occupancy
  Ca  Ca0  1  0.250000  0.750000  0.500137  1
  Ca  Ca1  1  0.750000  0.250000  0.499853  1
  Ca  Ca2  1  0.750000  0.250000  0.999525  1
  Ca  Ca3  1  0.250000  0.750000  0.000540  1
  Si  Si4  1  0.924199  0.502219  0.646966  1
  Si  Si5  1  0.575801  0.997781  0.646966  1
  Si  Si6  1  0.002126  0.424467  0.851782  1
  Si  Si7  1  0.501948  0.575696  0.648174  1
  Si  Si8  1  0.998052  0.924304  0.648174  1
  Si  Si9  1  0.075851  0.002143  0.852995  1
  Si  Si10  1  0.424149  0.497857  0.852995  1
  Si  Si11  1  0.497874  0.075533  0.851782  1
  Si  Si12  1  0.076402  0.498225  0.352693  1
  Si  Si13  1  0.423598  0.001775  0.352693  1
  Si  Si14  1  0.997760  0.575830  0.147962  1
  Si  Si15  1  0.498166  0.423921  0.352233  1
  Si  Si16  1  0.001834  0.076079  0.352233  1
  Si  Si17  1  0.924129  0.997885  0.147199  1
  Si  Si18  1  0.575871  0.502115  0.147199  1
  Si  Si19  1  0.502240  0.924170  0.147962  1
  Ni  Ni20  1  0.250000  0.250000  0.580750  1
  Ni  Ni21  1  0.750000  0.750000  0.919214  1
  Ni  Ni22  1  0.750000  0.750000  0.418684  1
  Ni  Ni23  1  0.250000  0.250000  0.080777  1
  O  O24  1  0.002016  0.353175  0.581357  1
  O  O25  1  0.497984  0.146825  0.581357  1
  O  O26  1  0.851789  0.505102  0.916472  1
  O  O27  1  0.351152  0.495238  0.583837  1
  O  O28  1  0.148848  0.004762  0.583837  1
  O  O29  1  0.998334  0.853076  0.918680  1
  O  O30  1  0.501666  0.646924  0.918680  1
  O  O31  1  0.648211  0.994898  0.916472  1
  O  O32  1  0.998081  0.647633  0.418098  1
  O  O33  1  0.501919  0.852367  0.418098  1
  O  O34  1  0.148265  0.494905  0.083487  1
  O  O35  1  0.646899  0.502361  0.417890  1
  O  O36  1  0.853101  0.997639  0.417890  1
  O  O37  1  0.001648  0.147081  0.081588  1
  O  O38  1  0.498352  0.352919  0.081588  1
  O  O39  1  0.999747  0.294621  0.372739  1
  O  O40  1  0.351735  0.005095  0.083487  1
  O  O41  1  0.498914  0.793928  0.626330  1
  O  O42  1  0.205379  0.499864  0.873152  1
  O  O43  1  0.705423  0.500243  0.626900  1
  O  O44  1  0.794577  0.999757  0.626900  1
  O  O45  1  0.998568  0.206155  0.873296  1
  O  O46  1  0.501432  0.293845  0.873296  1
  O  O47  1  0.294621  0.000136  0.873152  1
  O  O48  1  0.459804  0.957709  0.250395  1
  O  O49  1  0.541874  0.460207  0.249891  1
  O  O50  1  0.958126  0.039794  0.249891  1
  O  O51  1  0.040197  0.542291  0.250395  1
  O  O52  1  0.540642  0.040670  0.749456  1
  O  O53  1  0.459369  0.541357  0.750580  1
  O  O54  1  0.040632  0.958643  0.750580  1
  O  O55  1  0.959358  0.459331  0.749456  1
  O  O56  1  0.705429  0.999859  0.126721  1
  O  O57  1  0.498582  0.705935  0.126379  1
  O  O58  1  0.001418  0.794065  0.126379  1
  O  O59  1  0.205181  0.999133  0.373011  1
  O  O60  1  0.294819  0.500867  0.373011  1
  O  O61  1  0.794571  0.500141  0.126721  1
  O  O62  1  0.500253  0.205379  0.372739  1
  O  O63  1  0.001086  0.706072  0.626330  1
