# generated using pymatgen
data_CaTiCo(PO4)3
_symmetry_space_group_name_H-M   'P 1'
_cell_length_a   8.80535128
_cell_length_b   8.80535143
_cell_length_c   8.80535164
_cell_angle_alpha   58.67561186
_cell_angle_beta   58.67561346
_cell_angle_gamma   58.67561511
_symmetry_Int_Tables_number   1
_chemical_formula_structural   CaTiCo(PO4)3
_chemical_formula_sum   'Ca2 Ti2 Co2 P6 O24'
_cell_volume   468.14190643
_cell_formula_units_Z   2
loop_
 _symmetry_equiv_pos_site_id
 _symmetry_equiv_pos_as_xyz
  1  'x, y, z'
loop_
 _atom_site_type_symbol
 _atom_site_label
 _atom_site_symmetry_multiplicity
 _atom_site_fract_x
 _atom_site_fract_y
 _atom_site_fract_z
 _atom_site_occupancy
  Ca  Ca0  1  0.997036  0.997036  0.997036  1
  Ca  Ca1  1  0.497036  0.497036  0.497036  1
  Ti  Ti2  1  0.146467  0.146467  0.146467  1
  Ti  Ti3  1  0.646467  0.646467  0.646467  1
  Co  Co4  1  0.352295  0.352295  0.352295  1
  Co  Co5  1  0.852295  0.852295  0.852295  1
  P  P6  1  0.040179  0.462074  0.749922  1
  P  P7  1  0.462074  0.749922  0.040179  1
  P  P8  1  0.749922  0.040179  0.462074  1
  P  P9  1  0.249922  0.962074  0.540179  1
  P  P10  1  0.540179  0.249922  0.962074  1
  P  P11  1  0.962074  0.540179  0.249922  1
  O  O12  1  0.122987  0.510992  0.295020  1
  O  O13  1  0.295020  0.122987  0.510992  1
  O  O14  1  0.055473  0.273565  0.921404  1
  O  O15  1  0.510992  0.295020  0.122987  1
  O  O16  1  0.010992  0.622987  0.795020  1
  O  O17  1  0.226110  0.438491  0.581647  1
  O  O18  1  0.273565  0.921404  0.055473  1
  O  O19  1  0.438491  0.581647  0.226110  1
  O  O20  1  0.205918  0.999201  0.371220  1
  O  O21  1  0.581647  0.226110  0.438491  1
  O  O22  1  0.081647  0.938491  0.726110  1
  O  O23  1  0.371220  0.205918  0.999201  1
  O  O24  1  0.622987  0.795020  0.010992  1
  O  O25  1  0.921404  0.055473  0.273565  1
  O  O26  1  0.421404  0.773565  0.555473  1
  O  O27  1  0.795020  0.010992  0.622987  1
  O  O28  1  0.555473  0.421404  0.773565  1
  O  O29  1  0.726110  0.081647  0.938491  1
  O  O30  1  0.773565  0.555473  0.421404  1
  O  O31  1  0.999201  0.371220  0.205918  1
  O  O32  1  0.499201  0.705918  0.871220  1
  O  O33  1  0.938491  0.726110  0.081647  1
  O  O34  1  0.705918  0.871220  0.499201  1
  O  O35  1  0.871220  0.499201  0.705918  1
