# generated using pymatgen
data_Ca(TiS2)4
_symmetry_space_group_name_H-M   'P 1'
_cell_length_a   6.86384763
_cell_length_b   7.73735442
_cell_length_c   13.85780460
_cell_angle_alpha   26.42560564
_cell_angle_beta   90.22723836
_cell_angle_gamma   103.10952732
_symmetry_Int_Tables_number   1
_chemical_formula_structural   Ca(TiS2)4
_chemical_formula_sum   'Ca1 Ti4 S8'
_cell_volume   283.32826389
_cell_formula_units_Z   1
loop_
 _symmetry_equiv_pos_site_id
 _symmetry_equiv_pos_as_xyz
  1  'x, y, z'
loop_
 _atom_site_type_symbol
 _atom_site_label
 _atom_site_symmetry_multiplicity
 _atom_site_fract_x
 _atom_site_fract_y
 _atom_site_fract_z
 _atom_site_occupancy
  Ca  Ca0  1  0.500000  0.000000  0.250000  1
  Ti  Ti1  1  0.000000  0.014930  0.992535  1
  Ti  Ti2  1  1.000000  0.985070  0.507465  1
  Ti  Ti3  1  0.505150  0.005150  0.993731  1
  Ti  Ti4  1  0.494850  0.994850  0.506269  1
  S  S5  1  0.330748  0.330130  0.229675  1
  S  S6  1  0.330748  0.331367  0.729057  1
  S  S7  1  0.830561  0.330561  0.233272  1
  S  S8  1  0.832975  0.332975  0.728302  1
  S  S9  1  0.167025  0.667025  0.771698  1
  S  S10  1  0.169439  0.669439  0.266728  1
  S  S11  1  0.669252  0.668633  0.770943  1
  S  S12  1  0.669252  0.669870  0.270325  1
