# generated using pymatgen
data_CaLaMnCrO6
_symmetry_space_group_name_H-M   'P 1'
_cell_length_a   5.46238269
_cell_length_b   5.49284534
_cell_length_c   7.72626486
_cell_angle_alpha   90.00000000
_cell_angle_beta   90.09810812
_cell_angle_gamma   90.00000000
_symmetry_Int_Tables_number   1
_chemical_formula_structural   CaLaMnCrO6
_chemical_formula_sum   'Ca2 La2 Mn2 Cr2 O12'
_cell_volume   231.81869089
_cell_formula_units_Z   2
loop_
 _symmetry_equiv_pos_site_id
 _symmetry_equiv_pos_as_xyz
  1  'x, y, z'
loop_
 _atom_site_type_symbol
 _atom_site_label
 _atom_site_symmetry_multiplicity
 _atom_site_fract_x
 _atom_site_fract_y
 _atom_site_fract_z
 _atom_site_occupancy
  Ca  Ca0  1  0.490553  0.458769  0.749949  1
  Ca  Ca1  1  0.990553  0.041231  0.249949  1
  La  La2  1  0.006478  0.969595  0.750051  1
  La  La3  1  0.506478  0.530405  0.250051  1
  Mn  Mn4  1  0.500383  0.999830  0.000655  1
  Mn  Mn5  1  0.000383  0.500170  0.500655  1
  Cr  Cr6  1  0.500268  0.999180  0.499195  1
  Cr  Cr7  1  0.000268  0.500820  0.999195  1
  O  O8  1  0.072123  0.480867  0.254844  1
  O  O9  1  0.221552  0.212593  0.961332  1
  O  O10  1  0.211585  0.220731  0.539366  1
  O  O11  1  0.294093  0.716875  0.957482  1
  O  O12  1  0.283474  0.707524  0.542139  1
  O  O13  1  0.419490  0.984828  0.244988  1
  O  O14  1  0.572123  0.019133  0.754844  1
  O  O15  1  0.721552  0.287407  0.461332  1
  O  O16  1  0.711585  0.279269  0.039366  1
  O  O17  1  0.794093  0.783125  0.457482  1
  O  O18  1  0.783474  0.792476  0.042139  1
  O  O19  1  0.919490  0.515172  0.744988  1
