# generated using pymatgen
data_MgCrO2
_symmetry_space_group_name_H-M   'P 1'
_cell_length_a   2.95020254
_cell_length_b   8.11322222
_cell_length_c   9.04327112
_cell_angle_alpha   67.99933483
_cell_angle_beta   80.57445792
_cell_angle_gamma   79.55658314
_symmetry_Int_Tables_number   1
_chemical_formula_structural   MgCrO2
_chemical_formula_sum   'Mg4 Cr4 O8'
_cell_volume   196.27571423
_cell_formula_units_Z   4
loop_
 _symmetry_equiv_pos_site_id
 _symmetry_equiv_pos_as_xyz
  1  'x, y, z'
loop_
 _atom_site_type_symbol
 _atom_site_label
 _atom_site_symmetry_multiplicity
 _atom_site_fract_x
 _atom_site_fract_y
 _atom_site_fract_z
 _atom_site_occupancy
  Mg  Mg0  1  0.327515  0.124518  0.223694  1
  Mg  Mg1  1  0.668436  0.855488  0.804403  1
  Mg  Mg2  1  0.015903  0.820252  0.150923  1
  Mg  Mg3  1  0.980236  0.159823  0.877055  1
  Cr  Cr4  1  0.634606  0.191475  0.536124  1
  Cr  Cr5  1  0.177033  0.477145  0.168878  1
  Cr  Cr6  1  0.819160  0.502721  0.859551  1
  Cr  Cr7  1  0.361300  0.788198  0.492021  1
  O  O8  1  0.819814  0.709503  0.652696  1
  O  O9  1  0.416194  0.352966  0.814146  1
  O  O10  1  0.579994  0.626931  0.214226  1
  O  O11  1  0.176059  0.270235  0.375520  1
  O  O12  1  0.121806  0.049206  0.703732  1
  O  O13  1  0.783177  0.333213  0.100127  1
  O  O14  1  0.874056  0.930825  0.324344  1
  O  O15  1  0.212989  0.646836  0.928180  1
