# generated using pymatgen
data_VSiO4
_symmetry_space_group_name_H-M   'P 1'
_cell_length_a   9.70920676
_cell_length_b   9.70920634
_cell_length_c   9.70920647
_cell_angle_alpha   109.47122291
_cell_angle_beta   109.47122199
_cell_angle_gamma   109.47122009
_symmetry_Int_Tables_number   1
_chemical_formula_structural   VSiO4
_chemical_formula_sum   'V12 Si12 O48'
_cell_volume   704.57837521
_cell_formula_units_Z   12
loop_
 _symmetry_equiv_pos_site_id
 _symmetry_equiv_pos_as_xyz
  1  'x, y, z'
loop_
 _atom_site_type_symbol
 _atom_site_label
 _atom_site_symmetry_multiplicity
 _atom_site_fract_x
 _atom_site_fract_y
 _atom_site_fract_z
 _atom_site_occupancy
  V  V0  1  0.250000  0.875001  0.625000  1
  V  V1  1  0.875000  0.625000  0.250000  1
  V  V2  1  0.625001  0.875001  0.750001  1
  V  V3  1  0.875001  0.750001  0.625001  1
  V  V4  1  0.625000  0.250000  0.875000  1
  V  V5  1  0.750000  0.625000  0.875000  1
  V  V6  1  0.750000  0.125000  0.375000  1
  V  V7  1  0.125000  0.375000  0.750000  1
  V  V8  1  0.375000  0.125000  0.250000  1
  V  V9  1  0.125000  0.250000  0.375000  1
  V  V10  1  0.375000  0.750001  0.125000  1
  V  V11  1  0.250000  0.375000  0.125000  1
  Si  Si12  1  0.250000  0.125000  0.875000  1
  Si  Si13  1  0.875000  0.250000  0.125000  1
  Si  Si14  1  0.625000  0.750001  0.375000  1
  Si  Si15  1  0.250000  0.625000  0.375001  1
  Si  Si16  1  0.375000  0.625000  0.750000  1
  Si  Si17  1  0.750000  0.375000  0.625000  1
  Si  Si18  1  0.875000  0.125000  0.750000  1
  Si  Si19  1  0.125000  0.750001  0.875000  1
  Si  Si20  1  0.125000  0.875001  0.250000  1
  Si  Si21  1  0.625000  0.375000  0.250000  1
  Si  Si22  1  0.375000  0.250000  0.625000  1
  Si  Si23  1  0.750000  0.875001  0.125000  1
  O  O24  1  0.273939  0.464226  0.369701  1
  O  O25  1  0.035774  0.309713  0.905474  1
  O  O26  1  0.130299  0.594526  0.904239  1
  O  O27  1  0.226060  0.595761  0.190287  1
  O  O28  1  0.226060  0.130298  0.035773  1
  O  O29  1  0.595760  0.190286  0.226060  1
  O  O30  1  0.594525  0.190286  0.464226  1
  O  O31  1  0.190287  0.226060  0.595762  1
  O  O32  1  0.905475  0.369701  0.595761  1
  O  O33  1  0.309714  0.904239  0.273940  1
  O  O34  1  0.904239  0.273940  0.309714  1
  O  O35  1  0.035774  0.226060  0.130298  1
  O  O36  1  0.190287  0.464226  0.594526  1
  O  O37  1  0.595761  0.905475  0.369702  1
  O  O38  1  0.130298  0.035773  0.226060  1
  O  O39  1  0.464226  0.594526  0.190286  1
  O  O40  1  0.369701  0.595761  0.905474  1
  O  O41  1  0.905474  0.035773  0.309713  1
  O  O42  1  0.594525  0.904239  0.130299  1
  O  O43  1  0.094525  0.630298  0.404239  1
  O  O44  1  0.464226  0.369701  0.273939  1
  O  O45  1  0.369701  0.273940  0.464226  1
  O  O46  1  0.309714  0.905475  0.035774  1
  O  O47  1  0.273939  0.309713  0.904238  1
  O  O48  1  0.726060  0.535773  0.630298  1
  O  O49  1  0.964226  0.690286  0.094525  1
  O  O50  1  0.869702  0.405475  0.095761  1
  O  O51  1  0.773940  0.404239  0.809714  1
  O  O52  1  0.773939  0.869702  0.964227  1
  O  O53  1  0.404239  0.809713  0.773939  1
  O  O54  1  0.405475  0.809713  0.535773  1
  O  O55  1  0.809714  0.773940  0.404239  1
  O  O56  1  0.726060  0.690286  0.095761  1
  O  O57  1  0.690287  0.094526  0.964226  1
  O  O58  1  0.630298  0.726061  0.535774  1
  O  O59  1  0.535774  0.630298  0.726060  1
  O  O60  1  0.095761  0.869702  0.405474  1
  O  O61  1  0.405474  0.095760  0.869701  1
  O  O62  1  0.094526  0.964226  0.690286  1
  O  O63  1  0.630299  0.404239  0.094525  1
  O  O64  1  0.535774  0.405475  0.809714  1
  O  O65  1  0.869702  0.964226  0.773940  1
  O  O66  1  0.404239  0.094526  0.630299  1
  O  O67  1  0.809713  0.535773  0.405475  1
  O  O68  1  0.964226  0.773940  0.869702  1
  O  O69  1  0.095761  0.726061  0.690287  1
  O  O70  1  0.690286  0.095760  0.726060  1
  O  O71  1  0.904239  0.130298  0.594525  1
