# generated using pymatgen
data_Mg2VIrO6
_symmetry_space_group_name_H-M   'P 1'
_cell_length_a   5.11526084
_cell_length_b   5.27546941
_cell_length_c   7.46911291
_cell_angle_alpha   90.00000000
_cell_angle_beta   90.19408659
_cell_angle_gamma   90.00000000
_symmetry_Int_Tables_number   1
_chemical_formula_structural   Mg2VIrO6
_chemical_formula_sum   'Mg4 V2 Ir2 O12'
_cell_volume   201.55585856
_cell_formula_units_Z   2
loop_
 _symmetry_equiv_pos_site_id
 _symmetry_equiv_pos_as_xyz
  1  'x, y, z'
loop_
 _atom_site_type_symbol
 _atom_site_label
 _atom_site_symmetry_multiplicity
 _atom_site_fract_x
 _atom_site_fract_y
 _atom_site_fract_z
 _atom_site_occupancy
  Mg  Mg0  1  0.011469  0.937767  0.250013  1
  Mg  Mg1  1  0.488531  0.437767  0.249987  1
  Mg  Mg2  1  0.511469  0.562233  0.750013  1
  Mg  Mg3  1  0.988531  0.062233  0.749987  1
  V  V4  1  0.000000  0.500000  0.000000  1
  V  V5  1  0.500000  0.000000  0.500000  1
  Ir  Ir6  1  0.000000  0.500000  0.500000  1
  Ir  Ir7  1  0.500000  0.000000  0.000000  1
  O  O8  1  0.133761  0.441384  0.757482  1
  O  O9  1  0.170516  0.193713  0.069133  1
  O  O10  1  0.191559  0.177277  0.433999  1
  O  O11  1  0.308441  0.677277  0.066001  1
  O  O12  1  0.329484  0.693713  0.430867  1
  O  O13  1  0.366239  0.941384  0.742518  1
  O  O14  1  0.633761  0.058616  0.257482  1
  O  O15  1  0.670516  0.306287  0.569133  1
  O  O16  1  0.691559  0.322723  0.933999  1
  O  O17  1  0.829484  0.806287  0.930867  1
  O  O18  1  0.808441  0.822723  0.566001  1
  O  O19  1  0.866239  0.558616  0.242518  1
