# generated using pymatgen
data_AlTe(WO4)2
_symmetry_space_group_name_H-M   'P 1'
_cell_length_a   5.13070286
_cell_length_b   5.66980213
_cell_length_c   9.75672336
_cell_angle_alpha   89.99548628
_cell_angle_beta   92.38249333
_cell_angle_gamma   89.98854053
_symmetry_Int_Tables_number   1
_chemical_formula_structural   AlTe(WO4)2
_chemical_formula_sum   'Al2 Te2 W4 O16'
_cell_volume   283.57841547
_cell_formula_units_Z   2
loop_
 _symmetry_equiv_pos_site_id
 _symmetry_equiv_pos_as_xyz
  1  'x, y, z'
loop_
 _atom_site_type_symbol
 _atom_site_label
 _atom_site_symmetry_multiplicity
 _atom_site_fract_x
 _atom_site_fract_y
 _atom_site_fract_z
 _atom_site_occupancy
  Al  Al0  1  0.250076  0.665840  0.250039  1
  Al  Al1  1  0.749923  0.334159  0.749961  1
  Te  Te2  1  0.750140  0.359861  0.249996  1
  Te  Te3  1  0.249860  0.640138  0.750004  1
  W  W4  1  0.234098  0.153261  0.503129  1
  W  W5  1  0.265971  0.153223  0.996890  1
  W  W6  1  0.765902  0.846739  0.496871  1
  W  W7  1  0.734029  0.846777  0.003110  1
  O  O8  1  0.388774  0.406644  0.132329  1
  O  O9  1  0.111480  0.406824  0.367691  1
  O  O10  1  0.611226  0.593355  0.867671  1
  O  O11  1  0.888519  0.593175  0.632309  1
  O  O12  1  0.430734  0.875910  0.595449  1
  O  O13  1  0.069470  0.875704  0.904716  1
  O  O14  1  0.569266  0.124090  0.404551  1
  O  O15  1  0.930530  0.124296  0.095284  1
  O  O16  1  0.924840  0.631473  0.146560  1
  O  O17  1  0.575299  0.631413  0.353438  1
  O  O18  1  0.075160  0.368528  0.853440  1
  O  O19  1  0.424701  0.368588  0.646562  1
  O  O20  1  0.423623  0.884075  0.127024  1
  O  O21  1  0.576377  0.115926  0.872976  1
  O  O22  1  0.076390  0.884163  0.372992  1
  O  O23  1  0.923610  0.115838  0.627008  1
