# generated using pymatgen
data_Ca3Nd4Nb6(FeO14)2
_symmetry_space_group_name_H-M   'P 1'
_cell_length_a   7.36144413
_cell_length_b   14.96199842
_cell_length_c   12.90044112
_cell_angle_alpha   30.24964733
_cell_angle_beta   54.77353616
_cell_angle_gamma   60.16063257
_symmetry_Int_Tables_number   1
_chemical_formula_structural   Ca3Nd4Nb6(FeO14)2
_chemical_formula_sum   'Ca3 Nd4 Nb6 Fe2 O28'
_cell_volume   584.71630547
_cell_formula_units_Z   1
loop_
 _symmetry_equiv_pos_site_id
 _symmetry_equiv_pos_as_xyz
  1  'x, y, z'
loop_
 _atom_site_type_symbol
 _atom_site_label
 _atom_site_symmetry_multiplicity
 _atom_site_fract_x
 _atom_site_fract_y
 _atom_site_fract_z
 _atom_site_occupancy
  Ca  Ca0  1  0.477276  0.254370  0.999880  1
  Ca  Ca1  1  0.522724  0.745630  0.000120  1
  Ca  Ca2  1  0.500000  0.500000  0.500000  1
  Nd  Nd3  1  0.523597  0.252014  0.493964  1
  Nd  Nd4  1  0.476403  0.747986  0.506036  1
  Nd  Nd5  1  0.500000  0.000000  0.500000  1
  Nd  Nd6  1  0.000000  0.500000  0.500000  1
  Nb  Nb7  1  0.500000  0.000000  0.000000  1
  Nb  Nb8  1  0.000000  0.500000  0.000000  1
  Nb  Nb9  1  0.012434  0.749692  0.999127  1
  Nb  Nb10  1  0.017259  0.250156  0.499063  1
  Nb  Nb11  1  0.987566  0.250308  0.000873  1
  Nb  Nb12  1  0.982741  0.749844  0.500937  1
  Fe  Fe13  1  0.000000  0.000000  0.000000  1
  Fe  Fe14  1  0.500000  0.500000  0.000000  1
  O  O15  1  0.073792  0.318608  0.048478  1
  O  O16  1  0.080760  0.001363  0.687517  1
  O  O17  1  0.407314  0.000858  0.365708  1
  O  O18  1  0.682318  0.995894  0.073374  1
  O  O19  1  0.079153  0.207097  0.669080  1
  O  O20  1  0.069727  0.798194  0.081956  1
  O  O21  1  0.330319  0.299127  0.323879  1
  O  O22  1  0.674258  0.301573  0.075100  1
  O  O23  1  0.069111  0.499991  0.671818  1
  O  O24  1  0.317682  0.004106  0.926626  1
  O  O25  1  0.383810  0.497933  0.373312  1
  O  O26  1  0.919240  0.998637  0.312483  1
  O  O27  1  0.675836  0.494810  0.078258  1
  O  O28  1  0.075265  0.683602  0.683290  1
  O  O29  1  0.322200  0.192934  0.932991  1
  O  O30  1  0.320626  0.805148  0.322970  1
  O  O31  1  0.924735  0.316398  0.316710  1
  O  O32  1  0.679374  0.194852  0.677030  1
  O  O33  1  0.677800  0.807066  0.067009  1
  O  O34  1  0.324164  0.505190  0.921742  1
  O  O35  1  0.930889  0.500009  0.328182  1
  O  O36  1  0.616190  0.502067  0.626688  1
  O  O37  1  0.325742  0.698427  0.924900  1
  O  O38  1  0.669681  0.700873  0.676121  1
  O  O39  1  0.930273  0.201806  0.918044  1
  O  O40  1  0.920847  0.792903  0.330920  1
  O  O41  1  0.592686  0.999142  0.634292  1
  O  O42  1  0.926208  0.681392  0.951522  1
