# generated using pymatgen
data_CaMn2O4
_symmetry_space_group_name_H-M   'P 1'
_cell_length_a   6.39550951
_cell_length_b   6.23870798
_cell_length_c   6.23870799
_cell_angle_alpha   59.99999563
_cell_angle_beta   60.80777493
_cell_angle_gamma   60.80777239
_symmetry_Int_Tables_number   1
_chemical_formula_structural   CaMn2O4
_chemical_formula_sum   'Ca2 Mn4 O8'
_cell_volume   178.13343526
_cell_formula_units_Z   2
loop_
 _symmetry_equiv_pos_site_id
 _symmetry_equiv_pos_as_xyz
  1  'x, y, z'
loop_
 _atom_site_type_symbol
 _atom_site_label
 _atom_site_symmetry_multiplicity
 _atom_site_fract_x
 _atom_site_fract_y
 _atom_site_fract_z
 _atom_site_occupancy
  Ca  Ca0  1  0.968688  0.010437  0.010437  1
  Ca  Ca1  1  0.126805  0.624398  0.624398  1
  Mn  Mn2  1  0.277122  0.240959  0.240959  1
  Mn  Mn3  1  0.623573  0.121595  0.627417  1
  Mn  Mn4  1  0.623573  0.627417  0.121595  1
  Mn  Mn5  1  0.623573  0.627417  0.627417  1
  O  O6  1  0.432487  0.369653  0.369653  1
  O  O7  1  0.432487  0.369653  0.828205  1
  O  O8  1  0.432487  0.828205  0.369653  1
  O  O9  1  0.873580  0.375474  0.375474  1
  O  O10  1  0.397800  0.867399  0.867399  1
  O  O11  1  0.812610  0.438561  0.874414  1
  O  O12  1  0.812610  0.874414  0.438561  1
  O  O13  1  0.812610  0.874414  0.874414  1
