# generated using pymatgen
data_Mg(CoO2)2
_symmetry_space_group_name_H-M   'P 1'
_cell_length_a   2.86613516
_cell_length_b   7.11514720
_cell_length_c   6.93964478
_cell_angle_alpha   79.77980936
_cell_angle_beta   78.09581757
_cell_angle_gamma   78.38219777
_symmetry_Int_Tables_number   1
_chemical_formula_structural   Mg(CoO2)2
_chemical_formula_sum   'Mg2 Co4 O8'
_cell_volume   134.26919135
_cell_formula_units_Z   2
loop_
 _symmetry_equiv_pos_site_id
 _symmetry_equiv_pos_as_xyz
  1  'x, y, z'
loop_
 _atom_site_type_symbol
 _atom_site_label
 _atom_site_symmetry_multiplicity
 _atom_site_fract_x
 _atom_site_fract_y
 _atom_site_fract_z
 _atom_site_occupancy
  Mg  Mg0  1  0.326891  0.150523  0.201103  1
  Mg  Mg1  1  0.673628  0.830915  0.830542  1
  Co  Co2  1  0.633288  0.175125  0.565226  1
  Co  Co3  1  0.146993  0.513063  0.200618  1
  Co  Co4  1  0.853462  0.468166  0.831788  1
  Co  Co5  1  0.367100  0.806241  0.466642  1
  O  O6  1  0.867096  0.670973  0.601620  1
  O  O7  1  0.458545  0.306146  0.783594  1
  O  O8  1  0.542013  0.674577  0.249342  1
  O  O9  1  0.132803  0.310454  0.430697  1
  O  O10  1  0.163466  0.996084  0.684968  1
  O  O11  1  0.778448  0.348291  0.101409  1
  O  O12  1  0.838217  0.984719  0.345854  1
  O  O13  1  0.221571  0.633315  0.930739  1
