# generated using pymatgen
data_LaFeWO6
_symmetry_space_group_name_H-M   'P 1'
_cell_length_a   5.56890658
_cell_length_b   5.53364828
_cell_length_c   7.84393542
_cell_angle_alpha   90.01562639
_cell_angle_beta   90.00000000
_cell_angle_gamma   90.00000000
_symmetry_Int_Tables_number   1
_chemical_formula_structural   LaFeWO6
_chemical_formula_sum   'La2 Fe2 W2 O12'
_cell_volume   241.72160976
_cell_formula_units_Z   2
loop_
 _symmetry_equiv_pos_site_id
 _symmetry_equiv_pos_as_xyz
  1  'x, y, z'
loop_
 _atom_site_type_symbol
 _atom_site_label
 _atom_site_symmetry_multiplicity
 _atom_site_fract_x
 _atom_site_fract_y
 _atom_site_fract_z
 _atom_site_occupancy
  La  La0  1  0.027975  0.993329  0.248325  1
  La  La1  1  0.472025  0.493329  0.748325  1
  Fe  Fe2  1  0.503441  0.997727  0.999574  1
  Fe  Fe3  1  0.996559  0.497727  0.499574  1
  W  W4  1  0.506388  0.998257  0.498641  1
  W  W5  1  0.993612  0.498257  0.998641  1
  O  O6  1  0.009728  0.545749  0.754782  1
  O  O7  1  0.224603  0.234987  0.975199  1
  O  O8  1  0.238297  0.226551  0.527325  1
  O  O9  1  0.261703  0.726551  0.027325  1
  O  O10  1  0.275397  0.734987  0.475199  1
  O  O11  1  0.490272  0.045749  0.254782  1
  O  O12  1  0.507230  0.930346  0.745260  1
  O  O13  1  0.715564  0.275688  0.534043  1
  O  O14  1  0.719459  0.286970  0.967040  1
  O  O15  1  0.780541  0.786970  0.467040  1
  O  O16  1  0.784436  0.775688  0.034043  1
  O  O17  1  0.992770  0.430346  0.245260  1
