# generated using pymatgen
data_Al2Si3(NiO4)3
_symmetry_space_group_name_H-M   'P 1'
_cell_length_a   10.01070212
_cell_length_b   10.01070173
_cell_length_c   10.01070184
_cell_angle_alpha   109.47122084
_cell_angle_beta   109.47122004
_cell_angle_gamma   109.47122206
_symmetry_Int_Tables_number   1
_chemical_formula_structural   Al2Si3(NiO4)3
_chemical_formula_sum   'Al8 Si12 Ni12 O48'
_cell_volume   772.27449239
_cell_formula_units_Z   4
loop_
 _symmetry_equiv_pos_site_id
 _symmetry_equiv_pos_as_xyz
  1  'x, y, z'
loop_
 _atom_site_type_symbol
 _atom_site_label
 _atom_site_symmetry_multiplicity
 _atom_site_fract_x
 _atom_site_fract_y
 _atom_site_fract_z
 _atom_site_occupancy
  Al  Al0  1  0.500000  0.000000  0.000000  1
  Al  Al1  1  0.000000  0.000000  0.000000  1
  Al  Al2  1  0.000000  0.500000  0.000000  1
  Al  Al3  1  0.000000  0.000000  0.500000  1
  Al  Al4  1  0.000000  0.500000  0.500001  1
  Al  Al5  1  0.500000  0.000000  0.500001  1
  Al  Al6  1  0.500000  0.500000  0.000000  1
  Al  Al7  1  0.500000  0.500000  0.500000  1
  Si  Si8  1  0.250000  0.125000  0.875000  1
  Si  Si9  1  0.875000  0.250000  0.125000  1
  Si  Si10  1  0.625000  0.750001  0.375000  1
  Si  Si11  1  0.250000  0.625000  0.375001  1
  Si  Si12  1  0.375000  0.625000  0.750000  1
  Si  Si13  1  0.750000  0.375000  0.625000  1
  Si  Si14  1  0.875000  0.125000  0.750000  1
  Si  Si15  1  0.125000  0.750001  0.875000  1
  Si  Si16  1  0.125000  0.875001  0.250000  1
  Si  Si17  1  0.625000  0.375000  0.250000  1
  Si  Si18  1  0.375000  0.250000  0.625000  1
  Si  Si19  1  0.750000  0.875001  0.125000  1
  Ni  Ni20  1  0.250000  0.875001  0.625000  1
  Ni  Ni21  1  0.875000  0.625000  0.250000  1
  Ni  Ni22  1  0.625001  0.875001  0.750001  1
  Ni  Ni23  1  0.875001  0.750001  0.625001  1
  Ni  Ni24  1  0.625000  0.250000  0.875000  1
  Ni  Ni25  1  0.750000  0.625000  0.875000  1
  Ni  Ni26  1  0.750000  0.125000  0.375000  1
  Ni  Ni27  1  0.125000  0.375000  0.750000  1
  Ni  Ni28  1  0.375000  0.125000  0.250000  1
  Ni  Ni29  1  0.125000  0.250000  0.375000  1
  Ni  Ni30  1  0.375000  0.750001  0.125000  1
  Ni  Ni31  1  0.250000  0.375000  0.125000  1
  O  O32  1  0.298443  0.483849  0.378459  1
  O  O33  1  0.016151  0.314594  0.894610  1
  O  O34  1  0.121541  0.605390  0.919984  1
  O  O35  1  0.201556  0.580016  0.185406  1
  O  O36  1  0.201556  0.121540  0.016150  1
  O  O37  1  0.580015  0.185405  0.201556  1
  O  O38  1  0.605389  0.185405  0.483849  1
  O  O39  1  0.185406  0.201556  0.580017  1
  O  O40  1  0.894611  0.378459  0.580016  1
  O  O41  1  0.314595  0.919984  0.298444  1
  O  O42  1  0.919984  0.298444  0.314595  1
  O  O43  1  0.016151  0.201556  0.121540  1
  O  O44  1  0.185406  0.483849  0.605390  1
  O  O45  1  0.580016  0.894611  0.378460  1
  O  O46  1  0.121540  0.016150  0.201556  1
  O  O47  1  0.483849  0.605390  0.185405  1
  O  O48  1  0.378459  0.580016  0.894610  1
  O  O49  1  0.894610  0.016150  0.314594  1
  O  O50  1  0.605389  0.919984  0.121541  1
  O  O51  1  0.105389  0.621540  0.419984  1
  O  O52  1  0.483849  0.378459  0.298443  1
  O  O53  1  0.378459  0.298444  0.483849  1
  O  O54  1  0.314595  0.894611  0.016151  1
  O  O55  1  0.298443  0.314594  0.919983  1
  O  O56  1  0.701556  0.516150  0.621541  1
  O  O57  1  0.983849  0.685405  0.105389  1
  O  O58  1  0.878460  0.394611  0.080016  1
  O  O59  1  0.798444  0.419984  0.814595  1
  O  O60  1  0.798443  0.878460  0.983850  1
  O  O61  1  0.419984  0.814594  0.798443  1
  O  O62  1  0.394611  0.814594  0.516150  1
  O  O63  1  0.814595  0.798444  0.419984  1
  O  O64  1  0.701556  0.685405  0.080016  1
  O  O65  1  0.685406  0.105390  0.983849  1
  O  O66  1  0.621540  0.701557  0.516151  1
  O  O67  1  0.516151  0.621540  0.701556  1
  O  O68  1  0.080016  0.878460  0.394610  1
  O  O69  1  0.394610  0.080015  0.878459  1
  O  O70  1  0.105390  0.983849  0.685405  1
  O  O71  1  0.621541  0.419984  0.105389  1
  O  O72  1  0.516151  0.394611  0.814595  1
  O  O73  1  0.878460  0.983849  0.798444  1
  O  O74  1  0.419985  0.105390  0.621541  1
  O  O75  1  0.814594  0.516150  0.394611  1
  O  O76  1  0.983849  0.798444  0.878460  1
  O  O77  1  0.080017  0.701557  0.685406  1
  O  O78  1  0.685405  0.080015  0.701556  1
  O  O79  1  0.919984  0.121540  0.605389  1
