# generated using pymatgen
data_BaAlV4O7
_symmetry_space_group_name_H-M   'P 1'
_cell_length_a   5.99272225
_cell_length_b   5.99272206
_cell_length_c   10.67229308
_cell_angle_alpha   90.00000000
_cell_angle_beta   90.00000000
_cell_angle_gamma   120.00000112
_symmetry_Int_Tables_number   1
_chemical_formula_structural   BaAlV4O7
_chemical_formula_sum   'Ba2 Al2 V8 O14'
_cell_volume   331.92247108
_cell_formula_units_Z   2
loop_
 _symmetry_equiv_pos_site_id
 _symmetry_equiv_pos_as_xyz
  1  'x, y, z'
loop_
 _atom_site_type_symbol
 _atom_site_label
 _atom_site_symmetry_multiplicity
 _atom_site_fract_x
 _atom_site_fract_y
 _atom_site_fract_z
 _atom_site_occupancy
  Ba  Ba0  1  0.666667  0.333333  0.470270  1
  Ba  Ba1  1  0.333333  0.666667  0.970270  1
  Al  Al2  1  0.666667  0.333333  0.869280  1
  Al  Al3  1  0.333333  0.666667  0.369280  1
  V  V4  1  0.834191  0.165810  0.178303  1
  V  V5  1  0.668380  0.834190  0.678304  1
  V  V6  1  0.165810  0.331620  0.678304  1
  V  V7  1  0.834191  0.668380  0.178303  1
  V  V8  1  0.331619  0.165810  0.178303  1
  V  V9  1  0.165810  0.834190  0.678304  1
  V  V10  1  0.000000  -0.000000  0.466008  1
  V  V11  1  0.000000  -0.000000  0.966008  1
  O  O12  1  0.815944  0.184057  0.993030  1
  O  O13  1  0.631888  0.815943  0.493029  1
  O  O14  1  0.184056  0.368111  0.493029  1
  O  O15  1  0.815945  0.631889  0.993030  1
  O  O16  1  0.368111  0.184057  0.993030  1
  O  O17  1  0.184056  0.815943  0.493029  1
  O  O18  1  0.000000  -0.000000  0.783242  1
  O  O19  1  0.000000  -0.000000  0.283243  1
  O  O20  1  0.493148  0.506854  0.277066  1
  O  O21  1  0.986295  0.493148  0.777066  1
  O  O22  1  0.506853  0.013705  0.777066  1
  O  O23  1  0.493148  0.986295  0.277066  1
  O  O24  1  0.506854  0.493148  0.777066  1
  O  O25  1  0.013705  0.506854  0.277066  1
