# generated using pymatgen
data_Y(SnO2)2
_symmetry_space_group_name_H-M   'P 1'
_cell_length_a   6.16559678
_cell_length_b   6.09917594
_cell_length_c   6.86181255
_cell_angle_alpha   116.38084766
_cell_angle_beta   116.69086130
_cell_angle_gamma   90.01187855
_symmetry_Int_Tables_number   1
_chemical_formula_structural   Y(SnO2)2
_chemical_formula_sum   'Y2 Sn4 O8'
_cell_volume   199.99650797
_cell_formula_units_Z   2
loop_
 _symmetry_equiv_pos_site_id
 _symmetry_equiv_pos_as_xyz
  1  'x, y, z'
loop_
 _atom_site_type_symbol
 _atom_site_label
 _atom_site_symmetry_multiplicity
 _atom_site_fract_x
 _atom_site_fract_y
 _atom_site_fract_z
 _atom_site_occupancy
  Y  Y0  1  0.875615  0.125615  0.751232  1
  Y  Y1  1  0.124385  0.874385  0.248768  1
  Sn  Sn2  1  0.500000  0.000000  0.000000  1
  Sn  Sn3  1  0.500000  0.500000  0.000000  1
  Sn  Sn4  1  0.000000  0.500000  0.500000  1
  Sn  Sn5  1  0.500000  0.500000  0.500000  1
  O  O6  1  0.752459  0.504105  0.856503  1
  O  O7  1  0.104044  0.852398  0.856503  1
  O  O8  1  0.247541  0.495895  0.143497  1
  O  O9  1  0.895956  0.147602  0.143497  1
  O  O10  1  0.501727  0.107388  0.358819  1
  O  O11  1  0.857092  0.751431  0.358819  1
  O  O12  1  0.142908  0.248569  0.641181  1
  O  O13  1  0.498273  0.892612  0.641181  1
