# generated using pymatgen
data_MgCu3P3O13
_symmetry_space_group_name_H-M   'P 1'
_cell_length_a   6.13806269
_cell_length_b   7.56695700
_cell_length_c   10.08761349
_cell_angle_alpha   100.58970238
_cell_angle_beta   90.00000000
_cell_angle_gamma   90.00000000
_symmetry_Int_Tables_number   1
_chemical_formula_structural   MgCu3P3O13
_chemical_formula_sum   'Mg2 Cu6 P6 O26'
_cell_volume   460.55401610
_cell_formula_units_Z   2
loop_
 _symmetry_equiv_pos_site_id
 _symmetry_equiv_pos_as_xyz
  1  'x, y, z'
loop_
 _atom_site_type_symbol
 _atom_site_label
 _atom_site_symmetry_multiplicity
 _atom_site_fract_x
 _atom_site_fract_y
 _atom_site_fract_z
 _atom_site_occupancy
  Mg  Mg0  1  0.750000  0.643724  0.178219  1
  Mg  Mg1  1  0.250000  0.356276  0.821781  1
  Cu  Cu2  1  0.250000  0.350817  0.202982  1
  Cu  Cu3  1  0.750000  0.649183  0.797018  1
  Cu  Cu4  1  0.250000  0.761431  0.430824  1
  Cu  Cu5  1  0.500000  -0.000000  -0.000000  1
  Cu  Cu6  1  0.750000  0.238569  0.569176  1
  Cu  Cu7  1  -0.000000  -0.000000  -0.000000  1
  P  P8  1  0.250000  0.210383  0.488800  1
  P  P9  1  0.750000  0.789617  0.511200  1
  P  P10  1  0.250000  0.737574  0.759339  1
  P  P11  1  0.750000  0.262426  0.240661  1
  P  P12  1  0.750000  0.319922  0.887469  1
  P  P13  1  0.250000  0.680078  0.112531  1
  O  O14  1  0.750000  0.379649  0.745653  1
  O  O15  1  0.562141  0.751015  0.403514  1
  O  O16  1  0.250000  0.799980  0.625348  1
  O  O17  1  0.535087  0.214164  0.893626  1
  O  O18  1  0.750000  0.643954  0.599550  1
  O  O19  1  0.750000  0.880884  0.904369  1
  O  O20  1  0.250000  0.356046  0.400450  1
  O  O21  1  0.035087  0.785836  0.106374  1
  O  O22  1  0.250000  0.025016  0.399234  1
  O  O23  1  0.750000  0.974984  0.600766  1
  O  O24  1  0.062548  0.611669  0.788671  1
  O  O25  1  0.250000  0.119116  0.095631  1
  O  O26  1  0.562548  0.388331  0.211329  1
  O  O27  1  0.750000  0.505026  0.980199  1
  O  O28  1  0.750000  0.200020  0.374652  1
  O  O29  1  0.464913  0.785836  0.106374  1
  O  O30  1  0.937859  0.751015  0.403514  1
  O  O31  1  0.437859  0.248985  0.596486  1
  O  O32  1  0.437452  0.611669  0.788671  1
  O  O33  1  0.250000  0.620351  0.254347  1
  O  O34  1  0.750000  0.087726  0.128704  1
  O  O35  1  0.250000  0.912274  0.871296  1
  O  O36  1  0.937452  0.388331  0.211329  1
  O  O37  1  0.964913  0.214164  0.893626  1
  O  O38  1  0.062141  0.248985  0.596486  1
  O  O39  1  0.250000  0.494974  0.019801  1
