# generated using pymatgen
data_CaV4O6
_symmetry_space_group_name_H-M   'P 1'
_cell_length_a   3.08628132
_cell_length_b   5.38442232
_cell_length_c   15.42806360
_cell_angle_alpha   90.00000000
_cell_angle_beta   90.00000000
_cell_angle_gamma   106.65412577
_symmetry_Int_Tables_number   1
_chemical_formula_structural   CaV4O6
_chemical_formula_sum   'Ca2 V8 O12'
_cell_volume   245.62651625
_cell_formula_units_Z   2
loop_
 _symmetry_equiv_pos_site_id
 _symmetry_equiv_pos_as_xyz
  1  'x, y, z'
loop_
 _atom_site_type_symbol
 _atom_site_label
 _atom_site_symmetry_multiplicity
 _atom_site_fract_x
 _atom_site_fract_y
 _atom_site_fract_z
 _atom_site_occupancy
  Ca  Ca0  1  0.650162  0.300325  0.750000  1
  Ca  Ca1  1  0.349838  0.699675  0.250000  1
  V  V2  1  0.864972  0.729946  0.044395  1
  V  V3  1  0.402231  0.804461  0.635219  1
  V  V4  1  0.135026  0.270053  0.955605  1
  V  V5  1  0.597769  0.195539  0.364782  1
  V  V6  1  0.864972  0.729946  0.455605  1
  V  V7  1  0.135026  0.270053  0.544395  1
  V  V8  1  0.597769  0.195539  0.135218  1
  V  V9  1  0.402231  0.804461  0.864781  1
  O  O10  1  0.499999  0.000000  0.500000  1
  O  O11  1  0.499999  0.000000  0.000000  1
  O  O12  1  0.027863  0.055726  0.840365  1
  O  O13  1  0.972137  0.944274  0.159636  1
  O  O14  1  0.972137  0.944274  0.340364  1
  O  O15  1  0.027863  0.055726  0.659636  1
  O  O16  1  0.778292  0.556586  0.913810  1
  O  O17  1  0.221707  0.443415  0.086190  1
  O  O18  1  0.221707  0.443415  0.413810  1
  O  O19  1  0.778292  0.556586  0.586190  1
  O  O20  1  0.319238  0.638477  0.750000  1
  O  O21  1  0.680760  0.361522  0.250000  1
