# generated using pymatgen
data_Mg2NiN2
_symmetry_space_group_name_H-M   'P 1'
_cell_length_a   4.21796469
_cell_length_b   5.54257238
_cell_length_c   6.24786167
_cell_angle_alpha   66.26575754
_cell_angle_beta   70.28770746
_cell_angle_gamma   67.56645488
_symmetry_Int_Tables_number   1
_chemical_formula_structural   Mg2NiN2
_chemical_formula_sum   'Mg4 Ni2 N4'
_cell_volume   120.64430478
_cell_formula_units_Z   2
loop_
 _symmetry_equiv_pos_site_id
 _symmetry_equiv_pos_as_xyz
  1  'x, y, z'
loop_
 _atom_site_type_symbol
 _atom_site_label
 _atom_site_symmetry_multiplicity
 _atom_site_fract_x
 _atom_site_fract_y
 _atom_site_fract_z
 _atom_site_occupancy
  Mg  Mg0  1  0.673306  0.223279  0.422907  1
  Mg  Mg1  1  0.317654  0.784956  0.574151  1
  Mg  Mg2  1  0.034525  0.673508  0.253525  1
  Mg  Mg3  1  0.958984  0.330448  0.744661  1
  Ni  Ni4  1  0.369039  0.131132  0.122620  1
  Ni  Ni5  1  0.623047  0.868583  0.877318  1
  N  N6  1  0.177936  0.240922  0.399003  1
  N  N7  1  0.817263  0.761003  0.599161  1
  N  N8  1  0.467378  0.261677  0.796625  1
  N  N9  1  0.527952  0.736530  0.201716  1
