# generated using pymatgen
data_MgMn2O4
_symmetry_space_group_name_H-M   'P 1'
_cell_length_a   6.04349563
_cell_length_b   6.06320980
_cell_length_c   18.15352953
_cell_angle_alpha   59.95083699
_cell_angle_beta   59.99330277
_cell_angle_gamma   59.88221900
_symmetry_Int_Tables_number   1
_chemical_formula_structural   MgMn2O4
_chemical_formula_sum   'Mg6 Mn12 O24'
_cell_volume   469.74865993
_cell_formula_units_Z   6
loop_
 _symmetry_equiv_pos_site_id
 _symmetry_equiv_pos_as_xyz
  1  'x, y, z'
loop_
 _atom_site_type_symbol
 _atom_site_label
 _atom_site_symmetry_multiplicity
 _atom_site_fract_x
 _atom_site_fract_y
 _atom_site_fract_z
 _atom_site_occupancy
  Mg  Mg0  1  0.143703  0.115416  0.041906  1
  Mg  Mg1  1  0.497850  0.500882  0.333453  1
  Mg  Mg2  1  0.999702  0.499880  0.166836  1
  Mg  Mg3  1  0.502113  0.499844  0.666106  1
  Mg  Mg4  1  -0.000012  0.500221  0.499834  1
  Mg  Mg5  1  0.000672  0.499516  0.833440  1
  Mn  Mn6  1  0.502745  0.998602  0.166972  1
  Mn  Mn7  1  0.134905  0.113866  0.379087  1
  Mn  Mn8  1  0.499097  0.498796  0.001010  1
  Mn  Mn9  1  0.502902  0.497677  0.166896  1
  Mn  Mn10  1  0.500313  0.000130  0.499708  1
  Mn  Mn11  1  0.139854  0.117058  0.708869  1
  Mn  Mn12  1  0.500184  0.500422  0.499719  1
  Mn  Mn13  1  0.496287  0.003914  0.833061  1
  Mn  Mn14  1  0.861703  0.883843  0.290211  1
  Mn  Mn15  1  0.496391  0.500625  0.833072  1
  Mn  Mn16  1  0.863746  0.885465  0.621676  1
  Mn  Mn17  1  0.862642  0.881733  0.957829  1
  O  O18  1  0.281745  0.256132  0.085063  1
  O  O19  1  0.277268  0.254750  0.237497  1
  O  O20  1  0.281699  0.707002  0.085028  1
  O  O21  1  0.728460  0.256618  0.086052  1
  O  O22  1  0.274447  0.246388  0.423988  1
  O  O23  1  0.277384  0.750612  0.240511  1
  O  O24  1  0.278851  0.254434  0.570833  1
  O  O25  1  0.728851  0.291927  0.241102  1
  O  O26  1  0.274435  0.707102  0.424023  1
  O  O27  1  0.722595  0.745606  0.095684  1
  O  O28  1  0.715323  0.254263  0.425450  1
  O  O29  1  0.728917  0.755815  0.241156  1
  O  O30  1  0.269810  0.245161  0.758931  1
  O  O31  1  0.284594  0.746565  0.574040  1
  O  O32  1  0.725809  0.292853  0.575608  1
  O  O33  1  0.269525  0.708689  0.758921  1
  O  O34  1  0.275160  0.255147  0.905794  1
  O  O35  1  0.721932  0.746116  0.428464  1
  O  O36  1  0.724050  0.252345  0.758541  1
  O  O37  1  0.725655  0.754685  0.575522  1
  O  O38  1  0.277715  0.737651  0.914318  1
  O  O39  1  0.716002  0.296419  0.915213  1
  O  O40  1  0.719405  0.743866  0.763367  1
  O  O41  1  0.715570  0.741962  0.915210  1
