# generated using pymatgen
data_MgFeF5
_symmetry_space_group_name_H-M   'P 1'
_cell_length_a   5.29602027
_cell_length_b   5.31174751
_cell_length_c   7.50988109
_cell_angle_alpha   98.28799964
_cell_angle_beta   110.06026474
_cell_angle_gamma   108.47348868
_symmetry_Int_Tables_number   1
_chemical_formula_structural   MgFeF5
_chemical_formula_sum   'Mg2 Fe2 F10'
_cell_volume   180.48054028
_cell_formula_units_Z   2
loop_
 _symmetry_equiv_pos_site_id
 _symmetry_equiv_pos_as_xyz
  1  'x, y, z'
loop_
 _atom_site_type_symbol
 _atom_site_label
 _atom_site_symmetry_multiplicity
 _atom_site_fract_x
 _atom_site_fract_y
 _atom_site_fract_z
 _atom_site_occupancy
  Mg  Mg0  1  0.276996  0.525255  0.751337  1
  Mg  Mg1  1  0.718164  0.471198  0.246916  1
  Fe  Fe2  1  0.998735  0.999284  0.998840  1
  Fe  Fe3  1  0.497006  0.997754  0.498806  1
  F  F4  1  0.373984  0.123544  0.249410  1
  F  F5  1  0.622577  0.871434  0.748273  1
  F  F6  1  0.583808  0.721581  0.367490  1
  F  F7  1  0.850139  0.216362  0.127565  1
  F  F8  1  0.765205  0.682109  0.051513  1
  F  F9  1  0.125699  0.710301  0.444932  1
  F  F10  1  0.238799  0.319309  0.950741  1
  F  F11  1  0.868439  0.286577  0.554394  1
  F  F12  1  0.143681  0.781743  0.867130  1
  F  F13  1  0.408543  0.272243  0.630247  1
