# generated using pymatgen
data_Sr9Zn2(CuO7)2
_symmetry_space_group_name_H-M   'P 1'
_cell_length_a   3.65536995
_cell_length_b   11.35422980
_cell_length_c   11.36405634
_cell_angle_alpha   98.47288727
_cell_angle_beta   90.01889732
_cell_angle_gamma   99.30703349
_symmetry_Int_Tables_number   1
_chemical_formula_structural   Sr9Zn2(CuO7)2
_chemical_formula_sum   'Sr9 Zn2 Cu2 O14'
_cell_volume   460.22284915
_cell_formula_units_Z   1
loop_
 _symmetry_equiv_pos_site_id
 _symmetry_equiv_pos_as_xyz
  1  'x, y, z'
loop_
 _atom_site_type_symbol
 _atom_site_label
 _atom_site_symmetry_multiplicity
 _atom_site_fract_x
 _atom_site_fract_y
 _atom_site_fract_z
 _atom_site_occupancy
  Sr  Sr0  1  0.306402  0.608976  0.427480  1
  Sr  Sr1  1  0.321980  0.639186  0.083081  1
  Sr  Sr2  1  0.322144  0.634608  0.788045  1
  Sr  Sr3  1  0.690982  0.380525  0.217711  1
  Sr  Sr4  1  0.486371  0.967540  0.174579  1
  Sr  Sr5  1  0.507606  0.005644  0.500501  1
  Sr  Sr6  1  0.694878  0.382819  0.581135  1
  Sr  Sr7  1  0.514987  0.034147  0.805791  1
  Sr  Sr8  1  0.680635  0.355311  0.875465  1
  Zn  Zn9  1  0.102791  0.207723  0.044387  1
  Zn  Zn10  1  0.894008  0.777393  0.298003  1
  Cu  Cu11  1  0.896714  0.786993  0.621667  1
  Cu  Cu12  1  0.109999  0.213301  0.374757  1
  O  O13  1  0.799919  0.596160  0.275579  1
  O  O14  1  0.195730  0.390995  0.073461  1
  O  O15  1  0.030552  0.052822  0.352858  1
  O  O16  1  0.913001  0.820284  0.139218  1
  O  O17  1  0.190935  0.376756  0.401467  1
  O  O18  1  0.405663  0.813980  0.364857  1
  O  O19  1  0.797534  0.587251  0.925570  1
  O  O20  1  0.212278  0.417401  0.728710  1
  O  O21  1  0.582309  0.163093  0.100589  1
  O  O22  1  0.814924  0.623451  0.598106  1
  O  O23  1  0.976269  0.947654  0.644892  1
  O  O24  1  0.431711  0.843503  0.911909  1
  O  O25  1  0.085679  0.175327  0.872739  1
  O  O26  1  0.593062  0.190439  0.653988  1
