# generated using pymatgen
data_CaMn2(SiO3)4
_symmetry_space_group_name_H-M   'P 1'
_cell_length_a   5.29728291
_cell_length_b   6.68311063
_cell_length_c   6.68311059
_cell_angle_alpha   84.88068349
_cell_angle_beta   76.29059741
_cell_angle_gamma   76.29059043
_symmetry_Int_Tables_number   1
_chemical_formula_structural   CaMn2(SiO3)4
_chemical_formula_sum   'Ca1 Mn2 Si4 O12'
_cell_volume   223.17143027
_cell_formula_units_Z   1
loop_
 _symmetry_equiv_pos_site_id
 _symmetry_equiv_pos_as_xyz
  1  'x, y, z'
loop_
 _atom_site_type_symbol
 _atom_site_label
 _atom_site_symmetry_multiplicity
 _atom_site_fract_x
 _atom_site_fract_y
 _atom_site_fract_z
 _atom_site_occupancy
  Ca  Ca0  1  0.250000  0.694156  0.305843  1
  Mn  Mn1  1  0.750000  0.908291  0.091708  1
  Mn  Mn2  1  0.249999  0.108386  0.891615  1
  Si  Si3  1  0.266636  0.199770  0.384592  1
  Si  Si4  1  0.233363  0.615409  0.800229  1
  Si  Si5  1  0.777308  0.379868  0.198738  1
  Si  Si6  1  0.722693  0.801261  0.620133  1
  O  O7  1  0.493380  0.340525  0.352561  1
  O  O8  1  0.006620  0.647439  0.659476  1
  O  O9  1  0.494713  0.667605  0.628919  1
  O  O10  1  0.005287  0.371081  0.332395  1
  O  O11  1  0.202848  0.093333  0.607548  1
  O  O12  1  0.297152  0.392452  0.906668  1
  O  O13  1  0.814532  0.887730  0.386449  1
  O  O14  1  0.685466  0.613551  0.112270  1
  O  O15  1  0.879391  0.190625  0.037119  1
  O  O16  1  0.620609  0.962881  0.809375  1
  O  O17  1  0.370532  0.025910  0.199950  1
  O  O18  1  0.129470  0.800050  0.974091  1
