# generated using pymatgen
data_Sr2YW2O7
_symmetry_space_group_name_H-M   'P 1'
_cell_length_a   13.95164730
_cell_length_b   13.95164730
_cell_length_c   13.95164730
_cell_angle_alpha   33.69014137
_cell_angle_beta   156.94024524
_cell_angle_gamma   155.77661425
_symmetry_Int_Tables_number   1
_chemical_formula_structural   Sr2YW2O7
_chemical_formula_sum   'Sr4 Y2 W4 O14'
_cell_volume   436.01353746
_cell_formula_units_Z   2
loop_
 _symmetry_equiv_pos_site_id
 _symmetry_equiv_pos_as_xyz
  1  'x, y, z'
loop_
 _atom_site_type_symbol
 _atom_site_label
 _atom_site_symmetry_multiplicity
 _atom_site_fract_x
 _atom_site_fract_y
 _atom_site_fract_z
 _atom_site_occupancy
  Sr  Sr0  1  0.854015  0.770036  0.710642  1
  Sr  Sr1  1  0.059394  0.143374  0.289358  1
  Sr  Sr2  1  0.854015  0.643374  0.583980  1
  Sr  Sr3  1  0.059394  0.270036  0.416020  1
  Y  Y4  1  0.017696  0.517696  0.500000  1
  Y  Y5  1  0.017696  0.017696  -0.000000  1
  W  W6  1  0.523125  0.450218  0.928833  1
  W  W7  1  0.521384  0.594293  0.071167  1
  W  W8  1  0.523125  0.094293  0.572909  1
  W  W9  1  0.521384  0.950218  0.427091  1
  O  O10  1  0.024775  0.979275  0.545500  1
  O  O11  1  0.433775  0.479275  0.454500  1
  O  O12  1  0.515368  0.211277  0.197645  1
  O  O13  1  0.013631  0.317724  0.802355  1
  O  O14  1  0.515368  0.817723  0.804092  1
  O  O15  1  0.013631  0.711277  0.195908  1
  O  O16  1  0.525545  0.726941  0.691386  1
  O  O17  1  0.035556  0.834158  0.308614  1
  O  O18  1  0.525545  0.334158  0.298604  1
  O  O19  1  0.035556  0.226941  0.701396  1
  O  O20  1  0.595779  0.920882  0.386885  1
  O  O21  1  0.533997  0.208892  0.613115  1
  O  O22  1  0.595779  0.708892  0.174897  1
  O  O23  1  0.533997  0.420882  0.825103  1
