# generated using pymatgen
data_AlAgO3
_symmetry_space_group_name_H-M   'P 1'
_cell_length_a   6.04946861
_cell_length_b   6.04946830
_cell_length_c   10.84698449
_cell_angle_alpha   90.00000000
_cell_angle_beta   90.00000000
_cell_angle_gamma   120.00000164
_symmetry_Int_Tables_number   1
_chemical_formula_structural   AlAgO3
_chemical_formula_sum   'Al6 Ag6 O18'
_cell_volume   343.77483042
_cell_formula_units_Z   6
loop_
 _symmetry_equiv_pos_site_id
 _symmetry_equiv_pos_as_xyz
  1  'x, y, z'
loop_
 _atom_site_type_symbol
 _atom_site_label
 _atom_site_symmetry_multiplicity
 _atom_site_fract_x
 _atom_site_fract_y
 _atom_site_fract_z
 _atom_site_occupancy
  Al  Al0  1  0.666667  0.333333  0.242833  1
  Al  Al1  1  0.333333  0.666667  0.742833  1
  Al  Al2  1  0.666667  0.333333  0.742833  1
  Al  Al3  1  0.333333  0.666667  0.242833  1
  Al  Al4  1  0.000000  0.000000  0.744297  1
  Al  Al5  1  0.000000  0.000000  0.244297  1
  Ag  Ag6  1  0.674205  0.000000  0.497132  1
  Ag  Ag7  1  0.674205  0.674205  0.997132  1
  Ag  Ag8  1  0.000000  0.325795  0.997132  1
  Ag  Ag9  1  1.000000  0.674205  0.497132  1
  Ag  Ag10  1  0.325795  0.325795  0.497132  1
  Ag  Ag11  1  0.325795  0.000000  0.997132  1
  O  O12  1  0.666667  0.333333  0.067496  1
  O  O13  1  0.333333  0.666667  0.567496  1
  O  O14  1  0.666667  0.333333  0.567496  1
  O  O15  1  0.333333  0.666667  0.067496  1
  O  O16  1  0.000000  0.000000  0.910699  1
  O  O17  1  0.000000  0.000000  0.410699  1
  O  O18  1  0.444993  0.000000  0.821347  1
  O  O19  1  0.444993  0.444993  0.321347  1
  O  O20  1  0.000000  0.555007  0.321347  1
  O  O21  1  1.000000  0.444993  0.821347  1
  O  O22  1  0.555007  0.555007  0.821347  1
  O  O23  1  0.555007  0.000000  0.321347  1
  O  O24  1  0.271572  0.000000  0.181303  1
  O  O25  1  0.271572  0.271572  0.681303  1
  O  O26  1  1.000000  0.728428  0.681303  1
  O  O27  1  0.000000  0.271572  0.181303  1
  O  O28  1  0.728428  0.728428  0.181303  1
  O  O29  1  0.728428  0.000000  0.681303  1
