# generated using pymatgen
data_YTi3O6
_symmetry_space_group_name_H-M   'P 1'
_cell_length_a   17.48823512
_cell_length_b   6.04713639
_cell_length_c   6.56491838
_cell_angle_alpha   117.06258585
_cell_angle_beta   119.06387230
_cell_angle_gamma   87.94913709
_symmetry_Int_Tables_number   1
_chemical_formula_structural   YTi3O6
_chemical_formula_sum   'Y4 Ti12 O24'
_cell_volume   524.87504955
_cell_formula_units_Z   4
loop_
 _symmetry_equiv_pos_site_id
 _symmetry_equiv_pos_as_xyz
  1  'x, y, z'
loop_
 _atom_site_type_symbol
 _atom_site_label
 _atom_site_symmetry_multiplicity
 _atom_site_fract_x
 _atom_site_fract_y
 _atom_site_fract_z
 _atom_site_occupancy
  Y  Y0  1  0.289397  0.152678  0.744563  1
  Y  Y1  1  0.629849  0.133084  0.750939  1
  Y  Y2  1  0.043936  0.847322  0.255437  1
  Y  Y3  1  0.703484  0.866916  0.249060  1
  Ti  Ti4  1  0.166667  -0.000000  -0.000000  1
  Ti  Ti5  1  0.507665  0.109444  0.021701  1
  Ti  Ti6  1  0.825668  0.890556  0.978299  1
  Ti  Ti7  1  0.166667  0.500000  -0.000000  1
  Ti  Ti8  1  0.491142  0.532745  0.994166  1
  Ti  Ti9  1  0.842191  0.467255  0.005834  1
  Ti  Ti10  1  0.999162  0.417796  0.491721  1
  Ti  Ti11  1  0.334171  0.582204  0.508279  1
  Ti  Ti12  1  0.666667  0.500000  0.500000  1
  Ti  Ti13  1  0.166667  0.500000  0.500000  1
  Ti  Ti14  1  0.507337  0.549611  0.523880  1
  Ti  Ti15  1  0.825996  0.450389  0.476120  1
  O  O16  1  0.233396  0.517370  0.839713  1
  O  O17  1  0.566315  0.514773  0.854333  1
  O  O18  1  0.897196  0.597931  0.861657  1
  O  O19  1  0.076800  0.708847  0.870281  1
  O  O20  1  0.389970  0.896654  0.841675  1
  O  O21  1  0.695303  0.805945  0.852413  1
  O  O22  1  0.099937  0.482630  0.160287  1
  O  O23  1  0.436138  0.402069  0.138343  1
  O  O24  1  0.767018  0.485227  0.145667  1
  O  O25  1  0.256534  0.291153  0.129719  1
  O  O26  1  0.638030  0.194055  0.147587  1
  O  O27  1  0.943363  0.103346  0.158325  1
  O  O28  1  0.163379  0.135199  0.332459  1
  O  O29  1  0.562122  0.247619  0.415004  1
  O  O30  1  0.824947  0.105768  0.328945  1
  O  O31  1  0.261622  0.781612  0.354342  1
  O  O32  1  0.595975  0.748884  0.348072  1
  O  O33  1  0.963113  0.622564  0.326669  1
  O  O34  1  0.071712  0.218388  0.645658  1
  O  O35  1  0.370220  0.377435  0.673331  1
  O  O36  1  0.737358  0.251115  0.651928  1
  O  O37  1  0.169954  0.864801  0.667541  1
  O  O38  1  0.508386  0.894232  0.671055  1
  O  O39  1  0.771212  0.752381  0.584996  1
