# generated using pymatgen
data_Ca(NiO2)2
_symmetry_space_group_name_H-M   'P 1'
_cell_length_a   6.10834359
_cell_length_b   6.10834320
_cell_length_c   6.22478698
_cell_angle_alpha   59.36736635
_cell_angle_beta   59.36736752
_cell_angle_gamma   61.09850273
_symmetry_Int_Tables_number   1
_chemical_formula_structural   Ca(NiO2)2
_chemical_formula_sum   'Ca2 Ni4 O8'
_cell_volume   163.92323888
_cell_formula_units_Z   2
loop_
 _symmetry_equiv_pos_site_id
 _symmetry_equiv_pos_as_xyz
  1  'x, y, z'
loop_
 _atom_site_type_symbol
 _atom_site_label
 _atom_site_symmetry_multiplicity
 _atom_site_fract_x
 _atom_site_fract_y
 _atom_site_fract_z
 _atom_site_occupancy
  Ca  Ca0  1  0.125000  0.625000  0.625000  1
  Ca  Ca1  1  0.625000  0.125000  0.625000  1
  Ni  Ni2  1  0.985739  0.985739  0.014261  1
  Ni  Ni3  1  0.264261  0.264261  0.235739  1
  Ni  Ni4  1  0.625000  0.625000  0.125000  1
  Ni  Ni5  1  0.625000  0.625000  0.625000  1
  O  O6  1  0.397219  0.397219  0.342548  1
  O  O7  1  0.401288  0.883466  0.357623  1
  O  O8  1  0.397219  0.397219  0.863014  1
  O  O9  1  0.883466  0.401288  0.357623  1
  O  O10  1  0.366534  0.848712  0.892377  1
  O  O11  1  0.848712  0.366534  0.892377  1
  O  O12  1  0.852781  0.852781  0.386986  1
  O  O13  1  0.852781  0.852781  0.907452  1
