# generated using pymatgen
data_La2ZnWO6
_symmetry_space_group_name_H-M   'P 1'
_cell_length_a   5.65896307
_cell_length_b   5.65896269
_cell_length_c   5.65896330
_cell_angle_alpha   61.81126564
_cell_angle_beta   61.81126685
_cell_angle_gamma   61.81126988
_symmetry_Int_Tables_number   1
_chemical_formula_structural   La2ZnWO6
_chemical_formula_sum   'La2 Zn1 W1 O6'
_cell_volume   133.34181342
_cell_formula_units_Z   1
loop_
 _symmetry_equiv_pos_site_id
 _symmetry_equiv_pos_as_xyz
  1  'x, y, z'
loop_
 _atom_site_type_symbol
 _atom_site_label
 _atom_site_symmetry_multiplicity
 _atom_site_fract_x
 _atom_site_fract_y
 _atom_site_fract_z
 _atom_site_occupancy
  La  La0  1  0.750261  0.750261  0.750261  1
  La  La1  1  0.249739  0.249739  0.249739  1
  Zn  Zn2  1  0.500000  0.500000  0.500000  1
  W  W3  1  0.000000  0.000000  0.000000  1
  O  O4  1  0.339960  0.754472  0.152855  1
  O  O5  1  0.754472  0.152855  0.339960  1
  O  O6  1  0.152855  0.339960  0.754472  1
  O  O7  1  0.660040  0.245528  0.847145  1
  O  O8  1  0.847145  0.660040  0.245528  1
  O  O9  1  0.245528  0.847145  0.660040  1
