# generated using pymatgen
data_CrO3
_symmetry_space_group_name_H-M   'P 1'
_cell_length_a   5.00515782
_cell_length_b   5.25953216
_cell_length_c   7.14047107
_cell_angle_alpha   89.92320825
_cell_angle_beta   89.90418017
_cell_angle_gamma   90.61977375
_symmetry_Int_Tables_number   1
_chemical_formula_structural   CrO3
_chemical_formula_sum   'Cr4 O12'
_cell_volume   187.95995768
_cell_formula_units_Z   4
loop_
 _symmetry_equiv_pos_site_id
 _symmetry_equiv_pos_as_xyz
  1  'x, y, z'
loop_
 _atom_site_type_symbol
 _atom_site_label
 _atom_site_symmetry_multiplicity
 _atom_site_fract_x
 _atom_site_fract_y
 _atom_site_fract_z
 _atom_site_occupancy
  Cr  Cr0  1  0.491883  0.052142  0.970396  1
  Cr  Cr1  1  0.019877  0.547290  0.029578  1
  Cr  Cr2  1  0.003787  0.552391  0.529215  1
  Cr  Cr3  1  0.477090  0.045978  0.471557  1
  O  O4  1  0.904027  0.503690  0.747586  1
  O  O5  1  0.412352  0.964514  0.251749  1
  O  O6  1  0.591962  0.002928  0.752541  1
  O  O7  1  0.089680  0.465164  0.248306  1
  O  O8  1  0.693462  0.279334  0.452015  1
  O  O9  1  0.202365  0.184912  0.543513  1
  O  O10  1  0.812162  0.780233  0.050575  1
  O  O11  1  0.298627  0.686131  0.954639  1
  O  O12  1  0.684720  0.285184  0.045039  1
  O  O13  1  0.197010  0.182324  0.947065  1
  O  O14  1  0.303018  0.682702  0.552217  1
  O  O15  1  0.817978  0.785081  0.454011  1
