# generated using pymatgen
data_Sr2AlTlCo2O7
_symmetry_space_group_name_H-M   'P 1'
_cell_length_a   3.68812681
_cell_length_b   3.69100320
_cell_length_c   12.54571146
_cell_angle_alpha   89.81376041
_cell_angle_beta   90.16760902
_cell_angle_gamma   90.06926516
_symmetry_Int_Tables_number   1
_chemical_formula_structural   Sr2AlTlCo2O7
_chemical_formula_sum   'Sr2 Al1 Tl1 Co2 O7'
_cell_volume   170.78160751
_cell_formula_units_Z   1
loop_
 _symmetry_equiv_pos_site_id
 _symmetry_equiv_pos_as_xyz
  1  'x, y, z'
loop_
 _atom_site_type_symbol
 _atom_site_label
 _atom_site_symmetry_multiplicity
 _atom_site_fract_x
 _atom_site_fract_y
 _atom_site_fract_z
 _atom_site_occupancy
  Sr  Sr0  1  0.499357  0.500309  0.791724  1
  Sr  Sr1  1  0.502011  0.497758  0.209972  1
  Al  Al2  1  0.496287  0.505435  0.500874  1
  Tl  Tl3  1  0.000302  0.999713  0.000845  1
  Co  Co4  1  0.997820  0.002287  0.637712  1
  Co  Co5  1  0.000990  0.998615  0.362576  1
  O  O6  1  0.498388  0.002844  0.596673  1
  O  O7  1  0.996950  0.501914  0.596679  1
  O  O8  1  0.500767  0.994456  0.401927  1
  O  O9  1  0.004322  0.498890  0.401664  1
  O  O10  1  0.002202  0.997778  0.798205  1
  O  O11  1  0.000350  0.000173  0.201362  1
  O  O12  1  0.500255  0.499829  0.999790  1
