# generated using pymatgen
data_ZnSn(GeO3)2
_symmetry_space_group_name_H-M   'P 1'
_cell_length_a   5.67689323
_cell_length_b   7.47636935
_cell_length_c   7.47636952
_cell_angle_alpha   88.06483772
_cell_angle_beta   76.68639150
_cell_angle_gamma   76.68638253
_symmetry_Int_Tables_number   1
_chemical_formula_structural   ZnSn(GeO3)2
_chemical_formula_sum   'Zn2 Sn2 Ge4 O12'
_cell_volume   300.42696991
_cell_formula_units_Z   2
loop_
 _symmetry_equiv_pos_site_id
 _symmetry_equiv_pos_as_xyz
  1  'x, y, z'
loop_
 _atom_site_type_symbol
 _atom_site_label
 _atom_site_symmetry_multiplicity
 _atom_site_fract_x
 _atom_site_fract_y
 _atom_site_fract_z
 _atom_site_occupancy
  Zn  Zn0  1  0.750000  0.244951  0.755049  1
  Zn  Zn1  1  0.250000  0.755049  0.244951  1
  Sn  Sn2  1  0.750000  0.876281  0.123719  1
  Sn  Sn3  1  0.250000  0.123719  0.876281  1
  Ge  Ge4  1  0.725844  0.388143  0.214612  1
  Ge  Ge5  1  0.774156  0.785388  0.611857  1
  Ge  Ge6  1  0.274156  0.611857  0.785388  1
  Ge  Ge7  1  0.225844  0.214612  0.388143  1
  O  O8  1  0.496517  0.303651  0.381067  1
  O  O9  1  0.003483  0.618933  0.696349  1
  O  O10  1  0.503483  0.696349  0.618933  1
  O  O11  1  0.996517  0.381067  0.303651  1
  O  O12  1  0.098464  0.184930  0.624582  1
  O  O13  1  0.401536  0.375418  0.815070  1
  O  O14  1  0.901536  0.815070  0.375418  1
  O  O15  1  0.598464  0.624582  0.184930  1
  O  O16  1  0.826436  0.260905  0.006632  1
  O  O17  1  0.673564  0.993368  0.739095  1
  O  O18  1  0.173564  0.739095  0.993368  1
  O  O19  1  0.326436  0.006632  0.260905  1
