# generated using pymatgen
data_TaZn2WO6
_symmetry_space_group_name_H-M   'P 1'
_cell_length_a   5.41208617
_cell_length_b   5.53894218
_cell_length_c   7.88470030
_cell_angle_alpha   90.00000000
_cell_angle_beta   90.36977066
_cell_angle_gamma   90.00000000
_symmetry_Int_Tables_number   1
_chemical_formula_structural   TaZn2WO6
_chemical_formula_sum   'Ta2 Zn4 W2 O12'
_cell_volume   236.35657088
_cell_formula_units_Z   2
loop_
 _symmetry_equiv_pos_site_id
 _symmetry_equiv_pos_as_xyz
  1  'x, y, z'
loop_
 _atom_site_type_symbol
 _atom_site_label
 _atom_site_symmetry_multiplicity
 _atom_site_fract_x
 _atom_site_fract_y
 _atom_site_fract_z
 _atom_site_occupancy
  Ta  Ta0  1  0.500000  0.000000  0.000000  1
  Ta  Ta1  1  0.000001  0.499999  0.500000  1
  Zn  Zn2  1  0.005476  0.991495  0.256085  1
  Zn  Zn3  1  0.494524  0.491496  0.243915  1
  Zn  Zn4  1  0.994525  0.008506  0.743915  1
  Zn  Zn5  1  0.505475  0.508505  0.756085  1
  W  W6  1  0.500000  0.000000  0.499999  1
  W  W7  1  0.000000  0.499999  0.000000  1
  O  O8  1  0.692522  0.327281  0.426258  1
  O  O9  1  0.807478  0.827282  0.073742  1
  O  O10  1  0.307477  0.672719  0.573742  1
  O  O11  1  0.192523  0.172718  0.926258  1
  O  O12  1  0.161968  0.187568  0.559746  1
  O  O13  1  0.338032  0.687567  0.940254  1
  O  O14  1  0.838033  0.812432  0.440254  1
  O  O15  1  0.661967  0.312433  0.059746  1
  O  O16  1  0.133743  0.461816  0.260911  1
  O  O17  1  0.366258  0.961817  0.239088  1
  O  O18  1  0.633743  0.038183  0.760912  1
  O  O19  1  0.866258  0.538184  0.739089  1
