# generated using pymatgen
data_W3O8
_symmetry_space_group_name_H-M   'P 1'
_cell_length_a   5.16773428
_cell_length_b   6.95298556
_cell_length_c   6.49442831
_cell_angle_alpha   108.86214359
_cell_angle_beta   125.66115628
_cell_angle_gamma   85.77932747
_symmetry_Int_Tables_number   1
_chemical_formula_structural   W3O8
_chemical_formula_sum   'W3 O8'
_cell_volume   177.39861524
_cell_formula_units_Z   1
loop_
 _symmetry_equiv_pos_site_id
 _symmetry_equiv_pos_as_xyz
  1  'x, y, z'
loop_
 _atom_site_type_symbol
 _atom_site_label
 _atom_site_symmetry_multiplicity
 _atom_site_fract_x
 _atom_site_fract_y
 _atom_site_fract_z
 _atom_site_occupancy
  W  W0  1  0.124706  0.223222  0.099706  1
  W  W1  1  0.915664  0.409994  0.631425  1
  W  W2  1  0.333700  0.036458  0.567923  1
  O  O3  1  0.157466  0.645290  0.800856  1
  O  O4  1  0.517019  0.450281  0.358635  1
  O  O5  1  0.204881  0.196907  0.803340  1
  O  O6  1  0.429566  0.053685  0.329301  1
  O  O7  1  0.732347  0.996211  0.840778  1
  O  O8  1  0.091876  0.801191  0.398427  1
  O  O9  1  0.044474  0.249543  0.396040  1
  O  O10  1  0.819962  0.392850  0.870184  1
