# generated using pymatgen
data_Ge2BiO6
_symmetry_space_group_name_H-M   'P 1'
_cell_length_a   5.70597608
_cell_length_b   9.63533667
_cell_length_c   10.90279439
_cell_angle_alpha   90.00000000
_cell_angle_beta   107.23244109
_cell_angle_gamma   90.00000000
_symmetry_Int_Tables_number   1
_chemical_formula_structural   Ge2BiO6
_chemical_formula_sum   'Ge8 Bi4 O24'
_cell_volume   572.51702866
_cell_formula_units_Z   4
loop_
 _symmetry_equiv_pos_site_id
 _symmetry_equiv_pos_as_xyz
  1  'x, y, z'
loop_
 _atom_site_type_symbol
 _atom_site_label
 _atom_site_symmetry_multiplicity
 _atom_site_fract_x
 _atom_site_fract_y
 _atom_site_fract_z
 _atom_site_occupancy
  Ge  Ge0  1  0.817211  0.322272  0.047751  1
  Ge  Ge1  1  0.682789  0.822272  0.952249  1
  Ge  Ge2  1  0.182789  0.677728  0.952249  1
  Ge  Ge3  1  0.317211  0.177728  0.047751  1
  Ge  Ge4  1  0.131292  0.332250  0.474947  1
  Ge  Ge5  1  0.368708  0.832250  0.525053  1
  Ge  Ge6  1  0.868708  0.667750  0.525053  1
  Ge  Ge7  1  0.631292  0.167750  0.474947  1
  Bi  Bi8  1  0.002539  0.623849  0.239589  1
  Bi  Bi9  1  0.497461  0.123849  0.760411  1
  Bi  Bi10  1  0.997461  0.376151  0.760411  1
  Bi  Bi11  1  0.502539  0.876151  0.239589  1
  O  O12  1  0.346281  0.250868  0.409132  1
  O  O13  1  0.153719  0.750868  0.590868  1
  O  O14  1  0.653719  0.749132  0.590868  1
  O  O15  1  0.846281  0.249132  0.409132  1
  O  O16  1  0.143782  0.305947  0.100285  1
  O  O17  1  0.356218  0.805947  0.899715  1
  O  O18  1  0.856218  0.694053  0.899716  1
  O  O19  1  0.643782  0.194053  0.100284  1
  O  O20  1  0.625778  0.993744  0.420729  1
  O  O21  1  0.874222  0.493744  0.579271  1
  O  O22  1  0.374222  0.006256  0.579271  1
  O  O23  1  0.125778  0.506256  0.420729  1
  O  O24  1  0.256089  0.017784  0.107795  1
  O  O25  1  0.243911  0.517784  0.892205  1
  O  O26  1  0.743911  0.982216  0.892205  1
  O  O27  1  0.756089  0.482216  0.107795  1
  O  O28  1  0.730814  0.305240  0.874592  1
  O  O29  1  0.769186  0.805240  0.125408  1
  O  O30  1  0.269186  0.694760  0.125408  1
  O  O31  1  0.230814  0.194760  0.874592  1
  O  O32  1  0.244988  0.305001  0.648375  1
  O  O33  1  0.255012  0.805001  0.351625  1
  O  O34  1  0.755012  0.694999  0.351625  1
  O  O35  1  0.744988  0.194999  0.648375  1
