# generated using pymatgen
data_Mn4ZnS8
_symmetry_space_group_name_H-M   'P 1'
_cell_length_a   7.02155925
_cell_length_b   6.90746812
_cell_length_c   6.90746885
_cell_angle_alpha   60.00000098
_cell_angle_beta   60.53605907
_cell_angle_gamma   60.53605339
_symmetry_Int_Tables_number   1
_chemical_formula_structural   Mn4ZnS8
_chemical_formula_sum   'Mn4 Zn1 S8'
_cell_volume   238.79660388
_cell_formula_units_Z   1
loop_
 _symmetry_equiv_pos_site_id
 _symmetry_equiv_pos_as_xyz
  1  'x, y, z'
loop_
 _atom_site_type_symbol
 _atom_site_label
 _atom_site_symmetry_multiplicity
 _atom_site_fract_x
 _atom_site_fract_y
 _atom_site_fract_z
 _atom_site_occupancy
  Mn  Mn0  1  0.000000  0.500000  0.500000  1
  Mn  Mn1  1  0.500000  0.500000  0.000000  1
  Mn  Mn2  1  0.500000  0.500000  0.500000  1
  Mn  Mn3  1  0.500000  0.000000  0.500000  1
  Zn  Zn4  1  0.500000  0.000000  0.000000  1
  S  S5  1  0.269326  0.252209  0.252209  1
  S  S6  1  0.269326  0.252209  0.726256  1
  S  S7  1  0.269326  0.726256  0.252209  1
  S  S8  1  0.719864  0.260045  0.260045  1
  S  S9  1  0.280136  0.739955  0.739955  1
  S  S10  1  0.730674  0.747791  0.273744  1
  S  S11  1  0.730674  0.273744  0.747791  1
  S  S12  1  0.730674  0.747791  0.747791  1
