# generated using pymatgen
data_Ca2MnNiO6
_symmetry_space_group_name_H-M   'P 1'
_cell_length_a   6.41310768
_cell_length_b   6.41310782
_cell_length_c   6.29884676
_cell_angle_alpha   94.24209340
_cell_angle_beta   94.24208906
_cell_angle_gamma   93.10411020
_symmetry_Int_Tables_number   1
_chemical_formula_structural   Ca2MnNiO6
_chemical_formula_sum   'Ca4 Mn2 Ni2 O12'
_cell_volume   257.17777332
_cell_formula_units_Z   2
loop_
 _symmetry_equiv_pos_site_id
 _symmetry_equiv_pos_as_xyz
  1  'x, y, z'
loop_
 _atom_site_type_symbol
 _atom_site_label
 _atom_site_symmetry_multiplicity
 _atom_site_fract_x
 _atom_site_fract_y
 _atom_site_fract_z
 _atom_site_occupancy
  Ca  Ca0  1  0.621664  0.878337  0.250000  1
  Ca  Ca1  1  0.388048  0.111952  0.750000  1
  Ca  Ca2  1  0.886985  0.260986  0.606979  1
  Ca  Ca3  1  0.239014  0.613015  0.893020  1
  Mn  Mn4  1  0.499973  0.501607  0.498839  1
  Mn  Mn5  1  0.998392  0.000026  0.001161  1
  Ni  Ni6  1  0.745272  0.754728  0.750000  1
  Ni  Ni7  1  0.248256  0.251744  0.250000  1
  O  O8  1  0.220118  0.393194  0.543634  1
  O  O9  1  0.790559  0.583256  0.503814  1
  O  O10  1  0.574001  0.503107  0.800589  1
  O  O11  1  0.490829  0.799793  0.577833  1
  O  O12  1  0.996894  0.926000  0.699411  1
  O  O13  1  0.916743  0.709441  0.996185  1
  O  O14  1  0.292001  0.962651  0.069926  1
  O  O15  1  0.106806  0.279883  0.956367  1
  O  O16  1  0.974926  0.089678  0.286851  1
  O  O17  1  0.537349  0.208000  0.430073  1
  O  O18  1  0.410321  0.525074  0.213149  1
  O  O19  1  0.700207  0.009171  0.922168  1
