# generated using pymatgen
data_YSbO3
_symmetry_space_group_name_H-M   'P 1'
_cell_length_a   5.73709644
_cell_length_b   6.04461409
_cell_length_c   8.55933678
_cell_angle_alpha   89.99989072
_cell_angle_beta   90.00003658
_cell_angle_gamma   90.00000565
_symmetry_Int_Tables_number   1
_chemical_formula_structural   YSbO3
_chemical_formula_sum   'Y4 Sb4 O12'
_cell_volume   296.82525134
_cell_formula_units_Z   4
loop_
 _symmetry_equiv_pos_site_id
 _symmetry_equiv_pos_as_xyz
  1  'x, y, z'
loop_
 _atom_site_type_symbol
 _atom_site_label
 _atom_site_symmetry_multiplicity
 _atom_site_fract_x
 _atom_site_fract_y
 _atom_site_fract_z
 _atom_site_occupancy
  Y  Y0  1  0.018896  0.941974  0.749998  1
  Y  Y1  1  0.518897  0.558026  0.250001  1
  Y  Y2  1  0.481103  0.441962  0.750002  1
  Y  Y3  1  0.981103  0.058037  0.249998  1
  Sb  Sb4  1  0.000011  0.500002  0.499993  1
  Sb  Sb5  1  0.500005  -0.000000  0.499999  1
  Sb  Sb6  1  0.499986  0.999993  0.999999  1
  Sb  Sb7  1  0.999986  0.500019  0.999998  1
  O  O8  1  0.678975  0.316111  0.419043  1
  O  O9  1  0.178974  0.183888  0.580954  1
  O  O10  1  0.821038  0.816103  0.080957  1
  O  O11  1  0.321024  0.683890  0.919043  1
  O  O12  1  0.321027  0.683881  0.580956  1
  O  O13  1  0.821027  0.816118  0.419043  1
  O  O14  1  0.178985  0.183873  0.919046  1
  O  O15  1  0.678971  0.316121  0.080955  1
  O  O16  1  0.163300  0.405754  0.250014  1
  O  O17  1  0.663299  0.094247  0.749994  1
  O  O18  1  0.336697  0.905750  0.249994  1
  O  O19  1  0.836697  0.594251  0.750014  1
