# generated using pymatgen
data_Mg(SnO2)2
_symmetry_space_group_name_H-M   'P 1'
_cell_length_a   3.10269405
_cell_length_b   8.55644078
_cell_length_c   14.58772594
_cell_angle_alpha   89.98731676
_cell_angle_beta   90.00009038
_cell_angle_gamma   89.99910751
_symmetry_Int_Tables_number   1
_chemical_formula_structural   Mg(SnO2)2
_chemical_formula_sum   'Mg4 Sn8 O16'
_cell_volume   387.27519987
_cell_formula_units_Z   4
loop_
 _symmetry_equiv_pos_site_id
 _symmetry_equiv_pos_as_xyz
  1  'x, y, z'
loop_
 _atom_site_type_symbol
 _atom_site_label
 _atom_site_symmetry_multiplicity
 _atom_site_fract_x
 _atom_site_fract_y
 _atom_site_fract_z
 _atom_site_occupancy
  Mg  Mg0  1  0.750000  0.295494  0.279607  1
  Mg  Mg1  1  0.249991  0.704471  0.720401  1
  Mg  Mg2  1  0.750012  0.795676  0.220388  1
  Mg  Mg3  1  0.249990  0.204347  0.779614  1
  Sn  Sn4  1  0.250001  0.469419  0.098527  1
  Sn  Sn5  1  0.749997  0.030695  0.598550  1
  Sn  Sn6  1  0.250004  0.969335  0.401454  1
  Sn  Sn7  1  0.749986  0.530543  0.901513  1
  Sn  Sn8  1  0.750003  0.577169  0.404909  1
  Sn  Sn9  1  0.250019  0.422817  0.595078  1
  Sn  Sn10  1  0.750000  0.077324  0.094986  1
  Sn  Sn11  1  0.250011  0.922671  0.904993  1
  O  O12  1  0.250005  0.918052  0.155460  1
  O  O13  1  0.750001  0.081967  0.844530  1
  O  O14  1  0.250001  0.417907  0.344522  1
  O  O15  1  0.750004  0.582084  0.655478  1
  O  O16  1  0.250000  0.926963  0.670608  1
  O  O17  1  0.750000  0.073008  0.329400  1
  O  O18  1  0.249994  0.426840  0.829402  1
  O  O19  1  0.749999  0.573194  0.170584  1
  O  O20  1  0.249990  0.626500  0.983023  1
  O  O21  1  0.750002  0.373515  0.016972  1
  O  O22  1  0.249993  0.126521  0.516920  1
  O  O23  1  0.750009  0.873475  0.483091  1
  O  O24  1  0.749980  0.735202  0.821542  1
  O  O25  1  0.250006  0.264797  0.178450  1
  O  O26  1  0.250015  0.764808  0.321554  1
  O  O27  1  0.749976  0.235206  0.678445  1
