# generated using pymatgen
data_CaLaVCrO6
_symmetry_space_group_name_H-M   'P 1'
_cell_length_a   5.45730038
_cell_length_b   5.53352563
_cell_length_c   7.83045044
_cell_angle_alpha   90.00000000
_cell_angle_beta   90.30609554
_cell_angle_gamma   90.00000000
_symmetry_Int_Tables_number   1
_chemical_formula_structural   CaLaVCrO6
_chemical_formula_sum   'Ca2 La2 V2 Cr2 O12'
_cell_volume   236.46144137
_cell_formula_units_Z   2
loop_
 _symmetry_equiv_pos_site_id
 _symmetry_equiv_pos_as_xyz
  1  'x, y, z'
loop_
 _atom_site_type_symbol
 _atom_site_label
 _atom_site_symmetry_multiplicity
 _atom_site_fract_x
 _atom_site_fract_y
 _atom_site_fract_z
 _atom_site_occupancy
  Ca  Ca0  1  0.490753  0.457967  0.750461  1
  Ca  Ca1  1  0.990753  0.042033  0.250461  1
  La  La2  1  0.005799  0.966726  0.749023  1
  La  La3  1  0.505799  0.533274  0.249023  1
  V  V4  1  0.500323  0.000902  0.000714  1
  V  V5  1  0.000323  0.499098  0.500714  1
  Cr  Cr6  1  0.500420  0.999585  0.499263  1
  Cr  Cr7  1  0.000420  0.500415  0.999263  1
  O  O8  1  0.074501  0.477393  0.251803  1
  O  O9  1  0.225874  0.211665  0.963227  1
  O  O10  1  0.214303  0.215957  0.542936  1
  O  O11  1  0.290863  0.714413  0.954914  1
  O  O12  1  0.278748  0.706127  0.539492  1
  O  O13  1  0.418412  0.979819  0.248167  1
  O  O14  1  0.574501  0.022607  0.751803  1
  O  O15  1  0.725874  0.288335  0.463227  1
  O  O16  1  0.714303  0.284043  0.042936  1
  O  O17  1  0.790863  0.785587  0.454914  1
  O  O18  1  0.778748  0.793873  0.039492  1
  O  O19  1  0.918412  0.520181  0.748167  1
