# generated using pymatgen
data_Al5(NiO4)3
_symmetry_space_group_name_H-M   'P 1'
_cell_length_a   5.67111765
_cell_length_b   5.67111806
_cell_length_c   17.15776946
_cell_angle_alpha   59.53850001
_cell_angle_beta   59.53849382
_cell_angle_gamma   61.32762310
_symmetry_Int_Tables_number   1
_chemical_formula_structural   Al5(NiO4)3
_chemical_formula_sum   'Al10 Ni6 O24'
_cell_volume   391.13200443
_cell_formula_units_Z   2
loop_
 _symmetry_equiv_pos_site_id
 _symmetry_equiv_pos_as_xyz
  1  'x, y, z'
loop_
 _atom_site_type_symbol
 _atom_site_label
 _atom_site_symmetry_multiplicity
 _atom_site_fract_x
 _atom_site_fract_y
 _atom_site_fract_z
 _atom_site_occupancy
  Al  Al0  1  0.116312  0.116312  0.042224  1
  Al  Al1  1  0.119033  0.119033  0.380567  1
  Al  Al2  1  0.118543  0.118543  0.708679  1
  Al  Al3  1  0.499646  0.499646  0.994401  1
  Al  Al4  1  0.500354  0.500354  0.672266  1
  Al  Al5  1  0.497053  0.497053  0.174502  1
  Al  Al6  1  0.502947  0.502947  0.492165  1
  Al  Al7  1  0.880967  0.880967  0.286100  1
  Al  Al8  1  0.883688  0.883688  0.624443  1
  Al  Al9  1  0.881457  0.881457  0.957987  1
  Ni  Ni10  1  0.496761  0.995100  0.169532  1
  Ni  Ni11  1  0.503239  0.004900  0.497135  1
  Ni  Ni12  1  0.500000  0.000000  0.833333  1
  Ni  Ni13  1  0.995100  0.496761  0.169532  1
  Ni  Ni14  1  0.004900  0.503239  0.497135  1
  Ni  Ni15  1  0.000000  0.500000  0.833333  1
  O  O16  1  0.256720  0.256720  0.081609  1
  O  O17  1  0.243728  0.243728  0.425945  1
  O  O18  1  0.259397  0.259397  0.744401  1
  O  O19  1  0.263410  0.719468  0.086859  1
  O  O20  1  0.246802  0.738746  0.426405  1
  O  O21  1  0.246854  0.739005  0.743633  1
  O  O22  1  0.257716  0.257716  0.250281  1
  O  O23  1  0.263566  0.263566  0.578489  1
  O  O24  1  0.242403  0.242403  0.912866  1
  O  O25  1  0.719468  0.263410  0.086859  1
  O  O26  1  0.738746  0.246803  0.426405  1
  O  O27  1  0.739005  0.246854  0.743633  1
  O  O28  1  0.261254  0.753197  0.240261  1
  O  O29  1  0.280532  0.736591  0.579808  1
  O  O30  1  0.260995  0.753146  0.923034  1
  O  O31  1  0.753198  0.261254  0.240261  1
  O  O32  1  0.736591  0.280532  0.579808  1
  O  O33  1  0.753147  0.260995  0.923034  1
  O  O34  1  0.736434  0.736434  0.088178  1
  O  O35  1  0.742284  0.742284  0.416386  1
  O  O36  1  0.757597  0.757597  0.753800  1
  O  O37  1  0.756272  0.756272  0.240722  1
  O  O38  1  0.743280  0.743280  0.585057  1
  O  O39  1  0.740603  0.740603  0.922266  1
