# generated using pymatgen
data_MgTa2CuO7
_symmetry_space_group_name_H-M   'P 1'
_cell_length_a   8.31430586
_cell_length_b   10.82389757
_cell_length_c   10.78755968
_cell_angle_alpha   95.63754493
_cell_angle_beta   90.00000000
_cell_angle_gamma   90.00000000
_symmetry_Int_Tables_number   1
_chemical_formula_structural   MgTa2CuO7
_chemical_formula_sum   'Mg6 Ta12 Cu6 O42'
_cell_volume   966.11140361
_cell_formula_units_Z   6
loop_
 _symmetry_equiv_pos_site_id
 _symmetry_equiv_pos_as_xyz
  1  'x, y, z'
loop_
 _atom_site_type_symbol
 _atom_site_label
 _atom_site_symmetry_multiplicity
 _atom_site_fract_x
 _atom_site_fract_y
 _atom_site_fract_z
 _atom_site_occupancy
  Mg  Mg0  1  0.441031  0.129564  0.573470  1
  Mg  Mg1  1  0.947113  0.500000  0.750000  1
  Mg  Mg2  1  0.441031  0.870436  0.926530  1
  Mg  Mg3  1  0.052887  0.500000  0.250000  1
  Mg  Mg4  1  0.558969  0.870436  0.426530  1
  Mg  Mg5  1  0.558969  0.129564  0.073470  1
  Ta  Ta6  1  0.207818  0.173038  0.290322  1
  Ta  Ta7  1  0.751941  0.164657  0.373074  1
  Ta  Ta8  1  0.248059  0.164657  0.873074  1
  Ta  Ta9  1  0.792182  0.173038  0.790322  1
  Ta  Ta10  1  0.291879  0.489906  0.972302  1
  Ta  Ta11  1  0.751941  0.835343  0.126926  1
  Ta  Ta12  1  0.708121  0.489906  0.472302  1
  Ta  Ta13  1  0.248059  0.835343  0.626926  1
  Ta  Ta14  1  0.291879  0.510094  0.527698  1
  Ta  Ta15  1  0.708121  0.510094  0.027698  1
  Ta  Ta16  1  0.792182  0.826962  0.709678  1
  Ta  Ta17  1  0.207818  0.826962  0.209678  1
  Cu  Cu18  1  0.909137  0.789787  0.419208  1
  Cu  Cu19  1  0.090863  0.210213  0.580792  1
  Cu  Cu20  1  0.413320  0.500000  0.250000  1
  Cu  Cu21  1  0.909137  0.210213  0.080792  1
  Cu  Cu22  1  0.586680  0.500000  0.750000  1
  Cu  Cu23  1  0.090863  0.789787  0.919208  1
  O  O24  1  0.727427  0.205203  0.962505  1
  O  O25  1  0.748820  0.845269  0.300982  1
  O  O26  1  0.841963  0.000000  0.750000  1
  O  O27  1  0.890070  0.491614  0.114566  1
  O  O28  1  0.392121  0.942682  0.563303  1
  O  O29  1  0.936056  0.272410  0.706217  1
  O  O30  1  0.333814  0.315615  0.942842  1
  O  O31  1  0.109930  0.491614  0.614566  1
  O  O32  1  0.757666  0.452219  0.859516  1
  O  O33  1  0.392121  0.057318  0.936697  1
  O  O34  1  0.757666  0.547781  0.640484  1
  O  O35  1  0.460144  0.562823  0.891477  1
  O  O36  1  0.961914  0.842687  0.068798  1
  O  O37  1  0.063944  0.272410  0.206217  1
  O  O38  1  0.666186  0.684385  0.057158  1
  O  O39  1  0.333814  0.684385  0.557158  1
  O  O40  1  0.936056  0.727590  0.793783  1
  O  O41  1  0.607879  0.057318  0.436697  1
  O  O42  1  0.272573  0.205203  0.462505  1
  O  O43  1  0.539856  0.437177  0.108523  1
  O  O44  1  0.395590  0.818749  0.294507  1
  O  O45  1  0.242334  0.547781  0.140484  1
  O  O46  1  0.038086  0.842687  0.568798  1
  O  O47  1  0.242334  0.452219  0.359516  1
  O  O48  1  0.890070  0.508386  0.385434  1
  O  O49  1  0.539856  0.562823  0.391477  1
  O  O50  1  0.109930  0.508386  0.885434  1
  O  O51  1  0.604410  0.818749  0.794507  1
  O  O52  1  0.604410  0.181251  0.705493  1
  O  O53  1  0.038086  0.157313  0.931202  1
  O  O54  1  0.063944  0.727590  0.293783  1
  O  O55  1  0.727427  0.794797  0.537495  1
  O  O56  1  0.158037  0.000000  0.250000  1
  O  O57  1  0.251180  0.845269  0.800982  1
  O  O58  1  0.607879  0.942682  0.063303  1
  O  O59  1  0.961914  0.157313  0.431202  1
  O  O60  1  0.272573  0.794797  0.037495  1
  O  O61  1  0.748820  0.154731  0.199018  1
  O  O62  1  0.460144  0.437177  0.608523  1
  O  O63  1  0.666186  0.315615  0.442842  1
  O  O64  1  0.251180  0.154731  0.699018  1
  O  O65  1  0.395590  0.181251  0.205493  1
