# generated using pymatgen
data_Ca(NiO2)4
_symmetry_space_group_name_H-M   'P 1'
_cell_length_a   2.99191735
_cell_length_b   6.60774399
_cell_length_c   6.91144509
_cell_angle_alpha   83.37109510
_cell_angle_beta   77.49310649
_cell_angle_gamma   76.91743364
_symmetry_Int_Tables_number   1
_chemical_formula_structural   Ca(NiO2)4
_chemical_formula_sum   'Ca1 Ni4 O8'
_cell_volume   129.61599444
_cell_formula_units_Z   1
loop_
 _symmetry_equiv_pos_site_id
 _symmetry_equiv_pos_as_xyz
  1  'x, y, z'
loop_
 _atom_site_type_symbol
 _atom_site_label
 _atom_site_symmetry_multiplicity
 _atom_site_fract_x
 _atom_site_fract_y
 _atom_site_fract_z
 _atom_site_occupancy
  Ca  Ca0  1  0.449819  0.032334  0.068103  1
  Ni  Ni1  1  0.630239  0.175533  0.564219  1
  Ni  Ni2  1  0.149429  0.491761  0.209451  1
  Ni  Ni3  1  0.820801  0.505887  0.852705  1
  Ni  Ni4  1  0.341877  0.813592  0.502816  1
  O  O5  1  0.854195  0.671492  0.620342  1
  O  O6  1  0.441437  0.340796  0.776591  1
  O  O7  1  0.529529  0.657992  0.283133  1
  O  O8  1  0.131944  0.304396  0.431893  1
  O  O9  1  0.140944  0.018953  0.699025  1
  O  O10  1  0.791189  0.326613  0.091054  1
  O  O11  1  0.830638  0.974079  0.364841  1
  O  O12  1  0.185441  0.662678  0.966473  1
