# generated using pymatgen
data_CaTi5O7
_symmetry_space_group_name_H-M   'P 1'
_cell_length_a   3.03664364
_cell_length_b   5.20090408
_cell_length_c   17.82222949
_cell_angle_alpha   90.00000000
_cell_angle_beta   90.00000000
_cell_angle_gamma   106.97378985
_symmetry_Int_Tables_number   1
_chemical_formula_structural   CaTi5O7
_chemical_formula_sum   'Ca2 Ti10 O14'
_cell_volume   269.21032371
_cell_formula_units_Z   2
loop_
 _symmetry_equiv_pos_site_id
 _symmetry_equiv_pos_as_xyz
  1  'x, y, z'
loop_
 _atom_site_type_symbol
 _atom_site_label
 _atom_site_symmetry_multiplicity
 _atom_site_fract_x
 _atom_site_fract_y
 _atom_site_fract_z
 _atom_site_occupancy
  Ca  Ca0  1  0.791995  0.583987  0.750000  1
  Ca  Ca1  1  0.208006  0.416012  0.250000  1
  Ti  Ti2  1  0.284548  0.569093  0.569038  1
  Ti  Ti3  1  0.464076  0.928151  0.145700  1
  Ti  Ti4  1  0.000000  0.000000  0.500000  1
  Ti  Ti5  1  0.000000  0.000000  0.000000  1
  Ti  Ti6  1  0.535924  0.071848  0.854301  1
  Ti  Ti7  1  0.715452  0.430906  0.430962  1
  Ti  Ti8  1  0.715452  0.430906  0.069038  1
  Ti  Ti9  1  0.284548  0.569093  0.930962  1
  Ti  Ti10  1  0.535924  0.071848  0.645699  1
  Ti  Ti11  1  0.464076  0.928151  0.354301  1
  O  O12  1  0.637108  0.274215  0.956831  1
  O  O13  1  0.362893  0.725786  0.043169  1
  O  O14  1  0.362893  0.725786  0.456831  1
  O  O15  1  0.637108  0.274215  0.543169  1
  O  O16  1  0.175658  0.351317  0.831567  1
  O  O17  1  0.824342  0.648683  0.168433  1
  O  O18  1  0.824342  0.648683  0.331568  1
  O  O19  1  0.175658  0.351317  0.668433  1
  O  O20  1  0.903423  0.806846  0.885985  1
  O  O21  1  0.096577  0.193154  0.114015  1
  O  O22  1  0.096577  0.193154  0.385985  1
  O  O23  1  0.903423  0.806846  0.614015  1
  O  O24  1  0.471563  0.943127  0.750000  1
  O  O25  1  0.528438  0.056875  0.250000  1
