# generated using pymatgen
data_AlRe(WO4)2
_symmetry_space_group_name_H-M   'P 1'
_cell_length_a   5.03292894
_cell_length_b   5.64577508
_cell_length_c   6.41819687
_cell_angle_alpha   114.66138946
_cell_angle_beta   117.84845654
_cell_angle_gamma   89.22640017
_symmetry_Int_Tables_number   1
_chemical_formula_structural   AlRe(WO4)2
_chemical_formula_sum   'Al1 Re1 W2 O8'
_cell_volume   142.75925652
_cell_formula_units_Z   1
loop_
 _symmetry_equiv_pos_site_id
 _symmetry_equiv_pos_as_xyz
  1  'x, y, z'
loop_
 _atom_site_type_symbol
 _atom_site_label
 _atom_site_symmetry_multiplicity
 _atom_site_fract_x
 _atom_site_fract_y
 _atom_site_fract_z
 _atom_site_occupancy
  Al  Al0  1  0.634398  0.767139  0.066722  1
  Re  Re1  1  0.125285  0.222747  0.102938  1
  W  W2  1  0.871936  0.401833  0.610005  1
  W  W3  1  0.371936  0.036243  0.592483  1
  O  O4  1  0.212075  0.691092  0.879371  1
  O  O5  1  0.546386  0.461164  0.333570  1
  O  O6  1  0.147875  0.179996  0.791252  1
  O  O7  1  0.600329  0.009781  0.379172  1
  O  O8  1  0.689622  0.960603  0.896378  1
  O  O9  1  0.035555  0.758451  0.309025  1
  O  O10  1  0.106743  0.260826  0.413859  1
  O  O11  1  0.653859  0.428621  0.821323  1
