# generated using pymatgen
data_CaCr3P3O13
_symmetry_space_group_name_H-M   'P 1'
_cell_length_a   6.36789393
_cell_length_b   7.58275292
_cell_length_c   10.34038810
_cell_angle_alpha   100.24541156
_cell_angle_beta   90.00000000
_cell_angle_gamma   90.00000000
_symmetry_Int_Tables_number   1
_chemical_formula_structural   CaCr3P3O13
_chemical_formula_sum   'Ca2 Cr6 P6 O26'
_cell_volume   491.33636946
_cell_formula_units_Z   2
loop_
 _symmetry_equiv_pos_site_id
 _symmetry_equiv_pos_as_xyz
  1  'x, y, z'
loop_
 _atom_site_type_symbol
 _atom_site_label
 _atom_site_symmetry_multiplicity
 _atom_site_fract_x
 _atom_site_fract_y
 _atom_site_fract_z
 _atom_site_occupancy
  Ca  Ca0  1  0.750000  0.657842  0.195407  1
  Ca  Ca1  1  0.250000  0.342158  0.804593  1
  Cr  Cr2  1  0.250000  0.358683  0.200312  1
  Cr  Cr3  1  0.750000  0.641317  0.799688  1
  Cr  Cr4  1  0.250000  0.775311  0.439502  1
  Cr  Cr5  1  0.500000  -0.000000  -0.000000  1
  Cr  Cr6  1  0.750000  0.224689  0.560498  1
  Cr  Cr7  1  0.000000  -0.000000  -0.000000  1
  P  P8  1  0.250000  0.209683  0.485733  1
  P  P9  1  0.750000  0.790317  0.514267  1
  P  P10  1  0.250000  0.740248  0.764046  1
  P  P11  1  0.750000  0.259752  0.235954  1
  P  P12  1  0.750000  0.313519  0.886884  1
  P  P13  1  0.250000  0.686481  0.113116  1
  O  O14  1  0.750000  0.356212  0.743429  1
  O  O15  1  0.560686  0.751942  0.416985  1
  O  O16  1  0.250000  0.796992  0.630533  1
  O  O17  1  0.547052  0.209531  0.905150  1
  O  O18  1  0.750000  0.659909  0.611667  1
  O  O19  1  0.750000  0.877216  0.905261  1
  O  O20  1  0.250000  0.340091  0.388333  1
  O  O21  1  0.047052  0.790469  0.094850  1
  O  O22  1  0.250000  0.016463  0.407476  1
  O  O23  1  0.750000  0.983537  0.592524  1
  O  O24  1  0.062123  0.621499  0.788590  1
  O  O25  1  0.250000  0.122784  0.094739  1
  O  O26  1  0.562123  0.378501  0.211410  1
  O  O27  1  0.750000  0.507907  0.965157  1
  O  O28  1  0.750000  0.203008  0.369467  1
  O  O29  1  0.452948  0.790469  0.094850  1
  O  O30  1  0.939314  0.751942  0.416985  1
  O  O31  1  0.439314  0.248058  0.583015  1
  O  O32  1  0.437877  0.621499  0.788590  1
  O  O33  1  0.250000  0.643788  0.256571  1
  O  O34  1  0.750000  0.083853  0.126852  1
  O  O35  1  0.250000  0.916147  0.873148  1
  O  O36  1  0.937877  0.378501  0.211410  1
  O  O37  1  0.952948  0.209531  0.905150  1
  O  O38  1  0.060686  0.248058  0.583015  1
  O  O39  1  0.250000  0.492093  0.034843  1
