# generated using pymatgen
data_TaZn2WO6
_symmetry_space_group_name_H-M   'P 1'
_cell_length_a   5.41937289
_cell_length_b   5.38643459
_cell_length_c   7.86544227
_cell_angle_alpha   90.00000000
_cell_angle_beta   90.00000000
_cell_angle_gamma   88.18105395
_symmetry_Int_Tables_number   1
_chemical_formula_structural   TaZn2WO6
_chemical_formula_sum   'Ta2 Zn4 W2 O12'
_cell_volume   229.48520154
_cell_formula_units_Z   2
loop_
 _symmetry_equiv_pos_site_id
 _symmetry_equiv_pos_as_xyz
  1  'x, y, z'
loop_
 _atom_site_type_symbol
 _atom_site_label
 _atom_site_symmetry_multiplicity
 _atom_site_fract_x
 _atom_site_fract_y
 _atom_site_fract_z
 _atom_site_occupancy
  Ta  Ta0  1  0.000000  0.500000  0.000000  1
  Ta  Ta1  1  0.000000  0.500000  0.500000  1
  Zn  Zn2  1  0.972786  0.988437  0.250000  1
  Zn  Zn3  1  0.503451  0.472219  0.250000  1
  Zn  Zn4  1  0.496549  0.527781  0.750000  1
  Zn  Zn5  1  0.027214  0.011563  0.750000  1
  W  W6  1  0.500000  0.000000  0.000000  1
  W  W7  1  0.500000  0.000000  0.500000  1
  O  O8  1  0.849683  0.821846  0.567336  1
  O  O9  1  0.312972  0.659412  0.434643  1
  O  O10  1  0.150317  0.178154  0.432664  1
  O  O11  1  0.687028  0.340588  0.934643  1
  O  O12  1  0.122196  0.424142  0.750000  1
  O  O13  1  0.687028  0.340588  0.565357  1
  O  O14  1  0.312972  0.659412  0.065357  1
  O  O15  1  0.849683  0.821846  0.932664  1
  O  O16  1  0.618252  0.107020  0.250000  1
  O  O17  1  0.150317  0.178154  0.067336  1
  O  O18  1  0.381748  0.892980  0.750000  1
  O  O19  1  0.877804  0.575858  0.250000  1
