# generated using pymatgen
data_Mg(CoS2)2
_symmetry_space_group_name_H-M   'P 1'
_cell_length_a   6.87651353
_cell_length_b   6.87625557
_cell_length_c   6.88389079
_cell_angle_alpha   120.19009300
_cell_angle_beta   119.50464609
_cell_angle_gamma   90.20140465
_symmetry_Int_Tables_number   1
_chemical_formula_structural   Mg(CoS2)2
_chemical_formula_sum   'Mg2 Co4 S8'
_cell_volume   230.81253295
_cell_formula_units_Z   2
loop_
 _symmetry_equiv_pos_site_id
 _symmetry_equiv_pos_as_xyz
  1  'x, y, z'
loop_
 _atom_site_type_symbol
 _atom_site_label
 _atom_site_symmetry_multiplicity
 _atom_site_fract_x
 _atom_site_fract_y
 _atom_site_fract_z
 _atom_site_occupancy
  Mg  Mg0  1  0.999988  0.499969  0.999973  1
  Mg  Mg1  1  0.999992  0.000014  0.500023  1
  Co  Co2  1  0.373070  0.623044  0.750026  1
  Co  Co3  1  0.626963  0.376988  0.249975  1
  Co  Co4  1  0.500006  0.999995  0.500008  1
  Co  Co5  1  0.999987  0.000000  -0.000006  1
  S  S6  1  0.742220  0.766691  0.525686  1
  S  S7  1  0.741000  0.216504  0.974271  1
  S  S8  1  0.244723  0.234945  0.008428  1
  S  S9  1  0.257769  0.233291  0.474321  1
  S  S10  1  0.273548  0.763683  0.508451  1
  S  S11  1  0.258973  0.783476  0.025723  1
  S  S12  1  0.726474  0.236329  0.491552  1
  S  S13  1  0.755288  0.765076  0.991571  1
