# generated using pymatgen
data_Ba2YCo3O7
_symmetry_space_group_name_H-M   'P 1'
_cell_length_a   3.89980372
_cell_length_b   3.99051431
_cell_length_c   11.59647986
_cell_angle_alpha   89.99992702
_cell_angle_beta   90.00007385
_cell_angle_gamma   90.00002281
_symmetry_Int_Tables_number   1
_chemical_formula_structural   Ba2YCo3O7
_chemical_formula_sum   'Ba2 Y1 Co3 O7'
_cell_volume   180.46700039
_cell_formula_units_Z   1
loop_
 _symmetry_equiv_pos_site_id
 _symmetry_equiv_pos_as_xyz
  1  'x, y, z'
loop_
 _atom_site_type_symbol
 _atom_site_label
 _atom_site_symmetry_multiplicity
 _atom_site_fract_x
 _atom_site_fract_y
 _atom_site_fract_z
 _atom_site_occupancy
  Ba  Ba0  1  0.500001  0.499997  0.820983  1
  Ba  Ba1  1  0.499997  0.500004  0.179007  1
  Y  Y2  1  0.500002  0.500000  0.500001  1
  Co  Co3  1  0.000003  0.999998  0.653542  1
  Co  Co4  1  0.999998  0.000002  0.346462  1
  Co  Co5  1  0.999999  1.000000  0.999992  1
  O  O6  1  -0.000000  0.500000  0.999998  1
  O  O7  1  0.499999  0.000000  0.623382  1
  O  O8  1  0.500002  1.000000  0.376627  1
  O  O9  1  1.000000  0.500002  0.623580  1
  O  O10  1  0.000001  0.499997  0.376430  1
  O  O11  1  0.999998  0.999999  0.841712  1
  O  O12  1  1.000000  0.000001  0.158288  1
