# generated using pymatgen
data_V4ZnO10
_symmetry_space_group_name_H-M   'P 1'
_cell_length_a   3.52853907
_cell_length_b   4.87225996
_cell_length_c   11.72636112
_cell_angle_alpha   90.02490781
_cell_angle_beta   90.00064313
_cell_angle_gamma   90.01376220
_symmetry_Int_Tables_number   1
_chemical_formula_structural   V4ZnO10
_chemical_formula_sum   'V4 Zn1 O10'
_cell_volume   201.59910197
_cell_formula_units_Z   1
loop_
 _symmetry_equiv_pos_site_id
 _symmetry_equiv_pos_as_xyz
  1  'x, y, z'
loop_
 _atom_site_type_symbol
 _atom_site_label
 _atom_site_symmetry_multiplicity
 _atom_site_fract_x
 _atom_site_fract_y
 _atom_site_fract_z
 _atom_site_occupancy
  V  V0  1  0.249998  0.420538  0.104021  1
  V  V1  1  0.750017  0.596285  0.899877  1
  V  V2  1  0.750027  0.596165  0.600165  1
  V  V3  1  0.249989  0.420614  0.395970  1
  Zn  Zn4  1  0.249800  0.175891  0.750055  1
  O  O5  1  0.749890  0.405880  0.750009  1
  O  O6  1  0.250010  0.541726  0.249958  1
  O  O7  1  0.750018  0.538780  0.070016  1
  O  O8  1  0.249974  0.445848  0.926760  1
  O  O9  1  0.750013  0.538678  0.429989  1
  O  O10  1  0.249979  0.445874  0.573194  1
  O  O11  1  0.249939  0.091844  0.382092  1
  O  O12  1  0.750189  0.930182  0.634400  1
  O  O13  1  0.750142  0.930290  0.865676  1
  O  O14  1  0.249953  0.092053  0.117767  1
