# generated using pymatgen
data_CaV4O8
_symmetry_space_group_name_H-M   'P 1'
_cell_length_a   6.60501421
_cell_length_b   6.60501401
_cell_length_c   6.60501487
_cell_angle_alpha   53.30876536
_cell_angle_beta   53.30876130
_cell_angle_gamma   53.30876615
_symmetry_Int_Tables_number   1
_chemical_formula_structural   CaV4O8
_chemical_formula_sum   'Ca1 V4 O8'
_cell_volume   171.83128846
_cell_formula_units_Z   1
loop_
 _symmetry_equiv_pos_site_id
 _symmetry_equiv_pos_as_xyz
  1  'x, y, z'
loop_
 _atom_site_type_symbol
 _atom_site_label
 _atom_site_symmetry_multiplicity
 _atom_site_fract_x
 _atom_site_fract_y
 _atom_site_fract_z
 _atom_site_occupancy
  Ca  Ca0  1  0.500000  0.500001  0.499999  1
  V  V1  1  0.500001  0.999999  0.500001  1
  V  V2  1  0.999999  0.500000  0.500001  1
  V  V3  1  0.500000  0.500000  0.000000  1
  V  V4  1  0.000000  0.000000  0.000000  1
  O  O5  1  0.766106  0.277917  0.766106  1
  O  O6  1  0.233893  0.233894  0.722083  1
  O  O7  1  0.233893  0.722084  0.233893  1
  O  O8  1  0.722082  0.233894  0.233894  1
  O  O9  1  0.273764  0.273765  0.273764  1
  O  O10  1  0.726236  0.726236  0.726236  1
  O  O11  1  0.277918  0.766107  0.766106  1
  O  O12  1  0.766107  0.766107  0.277917  1
