# generated using pymatgen
data_Nb2Zn2SbO8
_symmetry_space_group_name_H-M   'P 1'
_cell_length_a   5.46180474
_cell_length_b   5.90423879
_cell_length_c   10.75554084
_cell_angle_alpha   106.05036077
_cell_angle_beta   93.04673005
_cell_angle_gamma   89.88744913
_symmetry_Int_Tables_number   1
_chemical_formula_structural   Nb2Zn2SbO8
_chemical_formula_sum   'Nb4 Zn4 Sb2 O16'
_cell_volume   332.82183803
_cell_formula_units_Z   2
loop_
 _symmetry_equiv_pos_site_id
 _symmetry_equiv_pos_as_xyz
  1  'x, y, z'
loop_
 _atom_site_type_symbol
 _atom_site_label
 _atom_site_symmetry_multiplicity
 _atom_site_fract_x
 _atom_site_fract_y
 _atom_site_fract_z
 _atom_site_occupancy
  Nb  Nb0  1  0.726067  0.279262  0.244414  1
  Nb  Nb1  1  0.773291  0.035652  0.755305  1
  Nb  Nb2  1  0.271237  0.719706  0.754175  1
  Nb  Nb3  1  0.225350  0.961822  0.243903  1
  Zn  Zn4  1  0.774016  0.438453  0.559399  1
  Zn  Zn5  1  0.725130  0.879241  0.438908  1
  Zn  Zn6  1  0.225236  0.558183  0.439169  1
  Zn  Zn7  1  0.274105  0.118083  0.560039  1
  Sb  Sb8  1  0.742294  0.668712  0.998617  1
  Sb  Sb9  1  0.250512  0.332072  0.001183  1
  O  O10  1  0.028543  0.167111  0.152014  1
  O  O11  1  0.470821  0.015458  0.846296  1
  O  O12  1  0.969199  0.829227  0.847291  1
  O  O13  1  0.527989  0.981538  0.151225  1
  O  O14  1  0.607638  0.452397  0.115514  1
  O  O15  1  0.887490  0.334659  0.880661  1
  O  O16  1  0.392116  0.547646  0.885769  1
  O  O17  1  0.112871  0.661124  0.119092  1
  O  O18  1  0.420952  0.285534  0.354025  1
  O  O19  1  0.078677  0.930469  0.644686  1
  O  O20  1  0.355190  0.841472  0.397303  1
  O  O21  1  0.144397  0.442833  0.602109  1
  O  O22  1  0.643689  0.155364  0.601790  1
  O  O23  1  0.855466  0.554259  0.396827  1
  O  O24  1  0.919812  0.066218  0.353918  1
  O  O25  1  0.579243  0.710461  0.645621  1
