# generated using pymatgen
data_Ba2Cr3O8
_symmetry_space_group_name_H-M   'P 1'
_cell_length_a   3.86799195
_cell_length_b   3.86833793
_cell_length_c   12.14680160
_cell_angle_alpha   90.00166560
_cell_angle_beta   90.00101700
_cell_angle_gamma   89.96779974
_symmetry_Int_Tables_number   1
_chemical_formula_structural   Ba2Cr3O8
_chemical_formula_sum   'Ba2 Cr3 O8'
_cell_volume   181.74891948
_cell_formula_units_Z   1
loop_
 _symmetry_equiv_pos_site_id
 _symmetry_equiv_pos_as_xyz
  1  'x, y, z'
loop_
 _atom_site_type_symbol
 _atom_site_label
 _atom_site_symmetry_multiplicity
 _atom_site_fract_x
 _atom_site_fract_y
 _atom_site_fract_z
 _atom_site_occupancy
  Ba  Ba0  1  0.499999  0.500005  0.172124  1
  Ba  Ba1  1  0.499991  0.499982  0.827919  1
  Cr  Cr2  1  0.000029  0.000022  0.332000  1
  Cr  Cr3  1  0.999992  0.000003  0.999956  1
  Cr  Cr4  1  0.999932  0.999929  0.668032  1
  O  O5  1  0.000024  0.500030  0.347671  1
  O  O6  1  0.500030  0.000022  0.347664  1
  O  O7  1  0.499990  0.999995  0.999977  1
  O  O8  1  0.000004  0.000017  0.173732  1
  O  O9  1  0.000010  0.500002  0.652357  1
  O  O10  1  0.500006  0.000009  0.652373  1
  O  O11  1  0.000002  0.000001  0.826218  1
  O  O12  1  0.999993  0.499983  0.999975  1
