# generated using pymatgen
data_Y2(Mo2O7)3
_symmetry_space_group_name_H-M   'P 1'
_cell_length_a   22.11491268
_cell_length_b   7.39681971
_cell_length_c   7.39681915
_cell_angle_alpha   59.73848622
_cell_angle_beta   60.49134167
_cell_angle_gamma   60.49134105
_symmetry_Int_Tables_number   1
_chemical_formula_structural   Y2(Mo2O7)3
_chemical_formula_sum   'Y4 Mo12 O42'
_cell_volume   860.13747246
_cell_formula_units_Z   2
loop_
 _symmetry_equiv_pos_site_id
 _symmetry_equiv_pos_as_xyz
  1  'x, y, z'
loop_
 _atom_site_type_symbol
 _atom_site_label
 _atom_site_symmetry_multiplicity
 _atom_site_fract_x
 _atom_site_fract_y
 _atom_site_fract_z
 _atom_site_occupancy
  Y  Y0  1  0.176389  0.483346  0.483346  1
  Y  Y1  1  0.490278  0.516654  0.516654  1
  Y  Y2  1  0.002474  0.472016  0.472016  1
  Y  Y3  1  0.664193  0.527984  0.527984  1
  Mo  Mo4  1  0.007732  0.983232  0.983232  1
  Mo  Mo5  1  0.333333  0.000000  0.000000  1
  Mo  Mo6  1  0.658935  0.016768  0.016768  1
  Mo  Mo7  1  0.992387  0.995385  0.503360  1
  Mo  Mo8  1  0.333333  0.000000  0.500000  1
  Mo  Mo9  1  0.674280  0.004615  0.496640  1
  Mo  Mo10  1  0.164278  0.010734  0.010734  1
  Mo  Mo11  1  0.502388  0.989266  0.989266  1
  Mo  Mo12  1  0.833333  0.000000  0.000000  1
  Mo  Mo13  1  0.992387  0.503360  0.995385  1
  Mo  Mo14  1  0.333333  0.500000  0.000000  1
  Mo  Mo15  1  0.674280  0.496640  0.004615  1
  O  O16  1  0.200068  0.622585  0.622585  1
  O  O17  1  0.556658  0.581770  0.581770  1
  O  O18  1  0.889975  0.616095  0.616095  1
  O  O19  1  0.110009  0.418230  0.418230  1
  O  O20  1  0.466598  0.377415  0.377415  1
  O  O21  1  0.776691  0.383905  0.383905  1
  O  O22  1  0.102549  0.938006  0.938007  1
  O  O23  1  0.435549  0.943623  0.943624  1
  O  O24  1  0.764987  0.956514  0.956515  1
  O  O25  1  0.028008  0.684416  0.684418  1
  O  O26  1  0.359207  0.684044  0.684046  1
  O  O27  1  0.677300  0.700649  0.700651  1
  O  O28  1  0.315408  0.303888  0.945024  1
  O  O29  1  0.648367  0.333640  0.921119  1
  O  O30  1  0.983502  0.310307  0.927244  1
  O  O31  1  0.315408  0.945023  0.303887  1
  O  O32  1  0.648367  0.921118  0.333639  1
  O  O33  1  0.983502  0.927243  0.310306  1
  O  O34  1  0.108635  0.301402  0.918722  1
  O  O35  1  0.434480  0.314995  0.936443  1
  O  O36  1  0.768206  0.319052  0.951579  1
  O  O37  1  0.108635  0.918722  0.301401  1
  O  O38  1  0.434481  0.936443  0.314994  1
  O  O39  1  0.768206  0.951579  0.319051  1
  O  O40  1  0.307460  0.315956  0.315955  1
  O  O41  1  0.638659  0.315584  0.315583  1
  O  O42  1  0.989367  0.299351  0.299350  1
  O  O43  1  0.232186  0.685005  0.063557  1
  O  O44  1  0.558031  0.698598  0.081278  1
  O  O45  1  0.898461  0.680948  0.048421  1
  O  O46  1  0.018300  0.078882  0.666360  1
  O  O47  1  0.351259  0.054977  0.696112  1
  O  O48  1  0.683165  0.072757  0.689693  1
  O  O49  1  0.018300  0.666360  0.078882  1
  O  O50  1  0.351259  0.696112  0.054977  1
  O  O51  1  0.683165  0.689693  0.072757  1
  O  O52  1  0.232186  0.063557  0.685006  1
  O  O53  1  0.558032  0.081278  0.698599  1
  O  O54  1  0.898461  0.048421  0.680949  1
  O  O55  1  0.231118  0.056377  0.056376  1
  O  O56  1  0.564118  0.061994  0.061993  1
  O  O57  1  0.901680  0.043486  0.043485  1
