# generated using pymatgen
data_CaCu(PO3)4
_symmetry_space_group_name_H-M   'P 1'
_cell_length_a   7.43479395
_cell_length_b   7.44742193
_cell_length_c   10.24194937
_cell_angle_alpha   98.37060590
_cell_angle_beta   111.04691696
_cell_angle_gamma   107.77599528
_symmetry_Int_Tables_number   1
_chemical_formula_structural   CaCu(PO3)4
_chemical_formula_sum   'Ca2 Cu2 P8 O24'
_cell_volume   482.76716561
_cell_formula_units_Z   2
loop_
 _symmetry_equiv_pos_site_id
 _symmetry_equiv_pos_as_xyz
  1  'x, y, z'
loop_
 _atom_site_type_symbol
 _atom_site_label
 _atom_site_symmetry_multiplicity
 _atom_site_fract_x
 _atom_site_fract_y
 _atom_site_fract_z
 _atom_site_occupancy
  Ca  Ca0  1  0.700749  0.949521  0.750748  1
  Ca  Ca1  1  0.300231  0.049158  0.250306  1
  Cu  Cu2  1  0.500970  0.500464  0.500655  1
  Cu  Cu3  1  0.500371  0.998413  0.000159  1
  P  P4  1  0.503363  0.315653  0.810171  1
  P  P5  1  0.008648  0.692689  0.691650  1
  P  P6  1  0.498338  0.683425  0.191519  1
  P  P7  1  0.992304  0.304650  0.309645  1
  P  P8  1  0.755073  0.717253  0.024619  1
  P  P9  1  0.194074  0.727848  0.475145  1
  P  P10  1  0.246874  0.280931  0.976946  1
  P  P11  1  0.804717  0.270186  0.525030  1
  O  O12  1  0.314467  0.327591  0.848708  1
  O  O13  1  0.979355  0.464947  0.654059  1
  O  O14  1  0.687528  0.672045  0.153226  1
  O  O15  1  0.020143  0.532042  0.346631  1
  O  O16  1  0.706179  0.500569  0.932921  1
  O  O17  1  0.070112  0.770128  0.567966  1
  O  O18  1  0.295935  0.496874  0.070008  1
  O  O19  1  0.928657  0.226751  0.432505  1
  O  O20  1  0.463825  0.335588  0.661873  1
  O  O21  1  0.177725  0.801394  0.839619  1
  O  O22  1  0.538620  0.665687  0.340455  1
  O  O23  1  0.824788  0.194455  0.161269  1
  O  O24  1  0.537578  0.130945  0.840923  1
  O  O25  1  0.793466  0.698088  0.661234  1
  O  O26  1  0.462473  0.866922  0.159368  1
  O  O27  1  0.208358  0.300796  0.341437  1
  O  O28  1  0.612112  0.802790  0.929174  1
  O  O29  1  0.376278  0.681348  0.570650  1
  O  O30  1  0.389777  0.194770  0.071741  1
  O  O31  1  0.624104  0.318680  0.429566  1
  O  O32  1  0.983754  0.828425  0.086810  1
  O  O33  1  0.242067  0.893691  0.412511  1
  O  O34  1  0.018170  0.169442  0.914200  1
  O  O35  1  0.754012  0.104049  0.586953  1
