# generated using pymatgen
data_V2ZnN2
_symmetry_space_group_name_H-M   'P 1'
_cell_length_a   3.74164850
_cell_length_b   3.74166123
_cell_length_c   4.88110064
_cell_angle_alpha   90.00020207
_cell_angle_beta   89.99986171
_cell_angle_gamma   89.99999020
_symmetry_Int_Tables_number   1
_chemical_formula_structural   V2ZnN2
_chemical_formula_sum   'V2 Zn1 N2'
_cell_volume   68.33531685
_cell_formula_units_Z   1
loop_
 _symmetry_equiv_pos_site_id
 _symmetry_equiv_pos_as_xyz
  1  'x, y, z'
loop_
 _atom_site_type_symbol
 _atom_site_label
 _atom_site_symmetry_multiplicity
 _atom_site_fract_x
 _atom_site_fract_y
 _atom_site_fract_z
 _atom_site_occupancy
  V  V0  1  0.500000  0.499999  0.969874  1
  V  V1  1  0.499999  0.500000  0.530196  1
  Zn  Zn2  1  -0.000000  0.000000  0.250003  1
  N  N3  1  0.500000  0.000000  0.510118  1
  N  N4  1  0.000000  0.500001  0.989808  1
