# generated using pymatgen
data_Mg4Co5(TeO6)3
_symmetry_space_group_name_H-M   'P 1'
_cell_length_a   8.74098431
_cell_length_b   8.74098423
_cell_length_c   10.49541665
_cell_angle_alpha   85.89988059
_cell_angle_beta   85.89987923
_cell_angle_gamma   61.39033551
_symmetry_Int_Tables_number   1
_chemical_formula_structural   Mg4Co5(TeO6)3
_chemical_formula_sum   'Mg8 Co10 Te6 O36'
_cell_volume   701.55219346
_cell_formula_units_Z   2
loop_
 _symmetry_equiv_pos_site_id
 _symmetry_equiv_pos_as_xyz
  1  'x, y, z'
loop_
 _atom_site_type_symbol
 _atom_site_label
 _atom_site_symmetry_multiplicity
 _atom_site_fract_x
 _atom_site_fract_y
 _atom_site_fract_z
 _atom_site_occupancy
  Mg  Mg0  1  0.870340  0.536020  0.324283  1
  Mg  Mg1  1  0.482474  0.563338  0.208736  1
  Mg  Mg2  1  0.463980  0.129660  0.675717  1
  Mg  Mg3  1  0.436662  0.517526  0.791264  1
  Mg  Mg4  1  0.171532  0.874272  0.708744  1
  Mg  Mg5  1  0.144336  0.262127  0.824354  1
  Mg  Mg6  1  0.737873  0.855664  0.175646  1
  Mg  Mg7  1  0.125728  0.828468  0.291256  1
  Co  Co8  1  0.792036  0.489527  0.980194  1
  Co  Co9  1  0.097598  0.183700  0.480198  1
  Co  Co10  1  0.342867  0.323305  0.306625  1
  Co  Co11  1  0.931144  0.736310  0.806544  1
  Co  Co12  1  0.676695  0.657133  0.693375  1
  Co  Co13  1  0.987402  0.012598  0.000000  1
  Co  Co14  1  0.620681  0.379319  0.500000  1
  Co  Co15  1  0.263690  0.068857  0.193456  1
  Co  Co16  1  0.816300  0.902402  0.519802  1
  Co  Co17  1  0.510473  0.207964  0.019806  1
  Te  Te18  1  0.459746  0.862497  0.947610  1
  Te  Te19  1  0.804213  0.195746  0.249955  1
  Te  Te20  1  0.804254  0.195787  0.750045  1
  Te  Te21  1  0.470743  0.851323  0.447558  1
  Te  Te22  1  0.148677  0.529257  0.552442  1
  Te  Te23  1  0.137503  0.540254  0.052390  1
  O  O24  1  0.389972  0.082795  0.850864  1
  O  O25  1  0.712563  0.434110  0.812655  1
  O  O26  1  0.563335  0.627331  0.545241  1
  O  O27  1  0.728205  0.133322  0.413593  1
  O  O28  1  0.565890  0.287437  0.187345  1
  O  O29  1  0.866678  0.271795  0.586407  1
  O  O30  1  0.375472  0.779555  0.315641  1
  O  O31  1  0.039339  0.105920  0.812258  1
  O  O32  1  0.568991  0.285875  0.687617  1
  O  O33  1  0.082237  0.416216  0.421788  1
  O  O34  1  0.560006  0.649405  0.053245  1
  O  O35  1  0.526051  0.975475  0.078019  1
  O  O36  1  0.896016  0.957286  0.687130  1
  O  O37  1  0.691340  0.757834  0.860236  1
  O  O38  1  0.350595  0.439994  0.946755  1
  O  O39  1  0.232843  0.612329  0.184292  1
  O  O40  1  0.048164  0.742318  0.446751  1
  O  O41  1  0.242166  0.308660  0.139764  1
  O  O42  1  0.372669  0.436665  0.454759  1
  O  O43  1  0.257682  0.951836  0.553249  1
  O  O44  1  0.690953  0.781620  0.350934  1
  O  O45  1  0.917320  0.633230  0.640144  1
  O  O46  1  0.894080  0.960661  0.187742  1
  O  O47  1  0.387671  0.767157  0.815708  1
  O  O48  1  0.045218  0.763886  0.954565  1
  O  O49  1  0.741921  0.119595  0.913529  1
  O  O50  1  0.024525  0.473949  0.921981  1
  O  O51  1  0.220445  0.624528  0.684359  1
  O  O52  1  0.042714  0.103984  0.312870  1
  O  O53  1  0.366770  0.082680  0.359856  1
  O  O54  1  0.218380  0.309047  0.649066  1
  O  O55  1  0.880405  0.258079  0.086471  1
  O  O56  1  0.714125  0.431009  0.312383  1
  O  O57  1  0.583784  0.917763  0.578212  1
  O  O58  1  0.236114  0.954782  0.045435  1
  O  O59  1  0.917205  0.610028  0.149136  1
