# generated using pymatgen
data_Mn(GeO3)2
_symmetry_space_group_name_H-M   'P 1'
_cell_length_a   5.41772932
_cell_length_b   8.86951731
_cell_length_c   9.98725214
_cell_angle_alpha   90.00000000
_cell_angle_beta   104.69929934
_cell_angle_gamma   90.00000000
_symmetry_Int_Tables_number   1
_chemical_formula_structural   Mn(GeO3)2
_chemical_formula_sum   'Mn4 Ge8 O24'
_cell_volume   464.20670094
_cell_formula_units_Z   4
loop_
 _symmetry_equiv_pos_site_id
 _symmetry_equiv_pos_as_xyz
  1  'x, y, z'
loop_
 _atom_site_type_symbol
 _atom_site_label
 _atom_site_symmetry_multiplicity
 _atom_site_fract_x
 _atom_site_fract_y
 _atom_site_fract_z
 _atom_site_occupancy
  Mn  Mn0  1  0.974322  0.659573  0.240456  1
  Mn  Mn1  1  0.525678  0.159573  0.759544  1
  Mn  Mn2  1  0.025678  0.340427  0.759544  1
  Mn  Mn3  1  0.474322  0.840427  0.240456  1
  Ge  Ge4  1  0.846490  0.340240  0.053314  1
  Ge  Ge5  1  0.653510  0.840240  0.946686  1
  Ge  Ge6  1  0.153510  0.659760  0.946686  1
  Ge  Ge7  1  0.346490  0.159760  0.053314  1
  Ge  Ge8  1  0.120035  0.345211  0.473055  1
  Ge  Ge9  1  0.379965  0.845211  0.526945  1
  Ge  Ge10  1  0.879965  0.654789  0.526945  1
  Ge  Ge11  1  0.620035  0.154789  0.473055  1
  O  O12  1  0.366740  0.276547  0.400205  1
  O  O13  1  0.133260  0.776547  0.599795  1
  O  O14  1  0.633260  0.723453  0.599795  1
  O  O15  1  0.866740  0.223453  0.400205  1
  O  O16  1  0.172677  0.300381  0.112825  1
  O  O17  1  0.327323  0.800381  0.887175  1
  O  O18  1  0.827323  0.699619  0.887176  1
  O  O19  1  0.672677  0.199619  0.112824  1
  O  O20  1  0.604616  0.962544  0.406363  1
  O  O21  1  0.895384  0.462544  0.593637  1
  O  O22  1  0.395384  0.037456  0.593637  1
  O  O23  1  0.104616  0.537456  0.406363  1
  O  O24  1  0.288953  0.983808  0.119249  1
  O  O25  1  0.211047  0.483808  0.880751  1
  O  O26  1  0.711047  0.016192  0.880751  1
  O  O27  1  0.788953  0.516192  0.119249  1
  O  O28  1  0.756394  0.327721  0.864267  1
  O  O29  1  0.743606  0.827721  0.135733  1
  O  O30  1  0.243606  0.672279  0.135733  1
  O  O31  1  0.256394  0.172279  0.864267  1
  O  O32  1  0.285818  0.315519  0.658174  1
  O  O33  1  0.214182  0.815519  0.341826  1
  O  O34  1  0.714182  0.684481  0.341826  1
  O  O35  1  0.785818  0.184481  0.658174  1
