# generated using pymatgen
data_CaCr2CoO7
_symmetry_space_group_name_H-M   'P 1'
_cell_length_a   6.83912503
_cell_length_b   11.27959975
_cell_length_c   14.64605246
_cell_angle_alpha   90.00000000
_cell_angle_beta   90.00000000
_cell_angle_gamma   99.50158340
_symmetry_Int_Tables_number   1
_chemical_formula_structural   CaCr2CoO7
_chemical_formula_sum   'Ca8 Cr16 Co8 O56'
_cell_volume   1114.33430911
_cell_formula_units_Z   8
loop_
 _symmetry_equiv_pos_site_id
 _symmetry_equiv_pos_as_xyz
  1  'x, y, z'
loop_
 _atom_site_type_symbol
 _atom_site_label
 _atom_site_symmetry_multiplicity
 _atom_site_fract_x
 _atom_site_fract_y
 _atom_site_fract_z
 _atom_site_occupancy
  Ca  Ca0  1  0.077718  0.727836  0.502380  1
  Ca  Ca1  1  0.330523  0.962219  0.880077  1
  Ca  Ca2  1  0.669477  0.537781  0.380077  1
  Ca  Ca3  1  0.669477  0.037781  0.119923  1
  Ca  Ca4  1  0.330523  0.462219  0.619923  1
  Ca  Ca5  1  0.077718  0.227836  0.997620  1
  Ca  Ca6  1  0.922282  0.272164  0.497620  1
  Ca  Ca7  1  0.922282  0.772164  0.002380  1
  Cr  Cr8  1  0.841676  0.984917  0.869042  1
  Cr  Cr9  1  0.422747  0.689673  0.015197  1
  Cr  Cr10  1  0.422747  0.189673  0.484803  1
  Cr  Cr11  1  0.577253  0.310327  0.984803  1
  Cr  Cr12  1  0.505379  0.786034  0.703963  1
  Cr  Cr13  1  0.494621  0.713966  0.203963  1
  Cr  Cr14  1  0.494621  0.213966  0.296037  1
  Cr  Cr15  1  0.505379  0.286034  0.796037  1
  Cr  Cr16  1  0.577253  0.810327  0.515197  1
  Cr  Cr17  1  0.869050  0.482932  0.136552  1
  Cr  Cr18  1  0.130950  0.017068  0.636552  1
  Cr  Cr19  1  0.130950  0.517068  0.863448  1
  Cr  Cr20  1  0.158324  0.515083  0.369042  1
  Cr  Cr21  1  0.841676  0.484917  0.630958  1
  Cr  Cr22  1  0.158324  0.015083  0.130958  1
  Cr  Cr23  1  0.869050  0.982932  0.363448  1
  Co  Co24  1  0.633181  0.072824  0.672216  1
  Co  Co25  1  0.366819  0.427176  0.172216  1
  Co  Co26  1  0.366819  0.927176  0.327784  1
  Co  Co27  1  0.633181  0.572824  0.827784  1
  Co  Co28  1  0.999212  0.248977  0.754090  1
  Co  Co29  1  0.000788  0.251023  0.254090  1
  Co  Co30  1  0.000788  0.751023  0.245910  1
  Co  Co31  1  0.999212  0.748977  0.745910  1
  O  O32  1  0.759013  0.956197  0.977375  1
  O  O33  1  0.240987  0.543803  0.477375  1
  O  O34  1  0.240987  0.043803  0.022625  1
  O  O35  1  0.759013  0.456197  0.522625  1
  O  O36  1  0.991780  0.875014  0.851559  1
  O  O37  1  0.008220  0.624986  0.351558  1
  O  O38  1  0.008220  0.124986  0.148441  1
  O  O39  1  0.991780  0.375014  0.648441  1
  O  O40  1  0.995518  0.121117  0.857514  1
  O  O41  1  0.004482  0.378883  0.357514  1
  O  O42  1  0.004482  0.878883  0.142486  1
  O  O43  1  0.995518  0.621117  0.642486  1
  O  O44  1  0.685243  0.955614  0.288415  1
  O  O45  1  0.314757  0.544386  0.788415  1
  O  O46  1  0.314757  0.044386  0.711585  1
  O  O47  1  0.685243  0.455614  0.211585  1
  O  O48  1  0.967067  0.129442  0.363216  1
  O  O49  1  0.032933  0.370558  0.863216  1
  O  O50  1  0.032933  0.870558  0.636784  1
  O  O51  1  0.967067  0.629442  0.136784  1
  O  O52  1  0.043759  0.895733  0.339820  1
  O  O53  1  0.378945  0.830095  0.441744  1
  O  O54  1  0.956241  0.604267  0.839820  1
  O  O55  1  0.043759  0.395733  0.160180  1
  O  O56  1  0.731387  0.709450  0.479061  1
  O  O57  1  0.268613  0.790550  0.979061  1
  O  O58  1  0.268613  0.290550  0.520939  1
  O  O59  1  0.731387  0.209450  0.020939  1
  O  O60  1  0.775660  0.950282  0.466191  1
  O  O61  1  0.224340  0.549718  0.966191  1
  O  O62  1  0.224340  0.049718  0.533809  1
  O  O63  1  0.775660  0.450283  0.033809  1
  O  O64  1  0.424459  0.198182  0.894028  1
  O  O65  1  0.575541  0.301818  0.394028  1
  O  O66  1  0.575541  0.801818  0.105972  1
  O  O67  1  0.424459  0.698182  0.605972  1
  O  O68  1  0.693933  0.220521  0.751045  1
  O  O69  1  0.306067  0.279479  0.251045  1
  O  O70  1  0.306067  0.779479  0.248955  1
  O  O71  1  0.693933  0.720521  0.748955  1
  O  O72  1  0.635206  0.468593  0.702276  1
  O  O73  1  0.364794  0.031407  0.202276  1
  O  O74  1  0.364794  0.531407  0.297724  1
  O  O75  1  0.635206  0.968593  0.797724  1
  O  O76  1  0.297062  0.296582  0.736791  1
  O  O77  1  0.702938  0.203418  0.236791  1
  O  O78  1  0.702938  0.703418  0.263209  1
  O  O79  1  0.297062  0.796582  0.763209  1
  O  O80  1  0.596091  0.404782  0.876513  1
  O  O81  1  0.403909  0.095218  0.376513  1
  O  O82  1  0.403909  0.595218  0.123487  1
  O  O83  1  0.596091  0.904782  0.623487  1
  O  O84  1  0.378945  0.330095  0.058256  1
  O  O85  1  0.621055  0.169905  0.558256  1
  O  O86  1  0.621055  0.669905  0.941744  1
  O  O87  1  0.956241  0.104267  0.660180  1
