# generated using pymatgen
data_Ca(NiO2)2
_symmetry_space_group_name_H-M   'P 1'
_cell_length_a   5.06325512
_cell_length_b   5.79359900
_cell_length_c   11.00754831
_cell_angle_alpha   89.99700435
_cell_angle_beta   89.98519605
_cell_angle_gamma   90.00312299
_symmetry_Int_Tables_number   1
_chemical_formula_structural   Ca(NiO2)2
_chemical_formula_sum   'Ca4 Ni8 O16'
_cell_volume   322.90058214
_cell_formula_units_Z   4
loop_
 _symmetry_equiv_pos_site_id
 _symmetry_equiv_pos_as_xyz
  1  'x, y, z'
loop_
 _atom_site_type_symbol
 _atom_site_label
 _atom_site_symmetry_multiplicity
 _atom_site_fract_x
 _atom_site_fract_y
 _atom_site_fract_z
 _atom_site_occupancy
  Ca  Ca0  1  0.847836  0.249970  0.750084  1
  Ca  Ca1  1  0.152304  0.750037  0.250024  1
  Ca  Ca2  1  0.530048  0.250037  0.249950  1
  Ca  Ca3  1  0.469834  0.749969  0.749922  1
  Ni  Ni4  1  0.504209  0.749972  0.492212  1
  Ni  Ni5  1  0.504079  0.749994  0.007728  1
  Ni  Ni6  1  0.495975  0.250024  0.507624  1
  Ni  Ni7  1  0.495968  0.249999  0.992212  1
  Ni  Ni8  1  0.000016  0.500029  0.500023  1
  Ni  Ni9  1  0.999976  0.000008  0.000011  1
  Ni  Ni10  1  -0.000000  -0.000030  0.500027  1
  Ni  Ni11  1  0.999962  0.499969  0.000011  1
  O  O12  1  0.840070  0.749665  0.408483  1
  O  O13  1  0.839830  0.749648  0.091524  1
  O  O14  1  0.160767  0.250337  0.591511  1
  O  O15  1  0.160034  0.250353  0.908543  1
  O  O16  1  0.181930  0.749833  0.584963  1
  O  O17  1  0.181926  0.749777  0.915072  1
  O  O18  1  0.817266  0.250164  0.415110  1
  O  O19  1  0.818244  0.250233  0.084910  1
  O  O20  1  0.659100  0.501675  0.604970  1
  O  O21  1  0.659111  0.997925  0.895020  1
  O  O22  1  0.340943  0.002204  0.395022  1
  O  O23  1  0.340760  0.498211  0.105020  1
  O  O24  1  0.340810  0.497796  0.395029  1
  O  O25  1  0.340844  0.001898  0.105004  1
  O  O26  1  0.658960  0.998343  0.604983  1
  O  O27  1  0.659200  0.501960  0.895008  1
