# generated using pymatgen
data_Zn2BiSbO6
_symmetry_space_group_name_H-M   'P 1'
_cell_length_a   5.61081265
_cell_length_b   5.53155125
_cell_length_c   8.17853784
_cell_angle_alpha   90.00000000
_cell_angle_beta   90.00000000
_cell_angle_gamma   87.94704836
_symmetry_Int_Tables_number   1
_chemical_formula_structural   Zn2BiSbO6
_chemical_formula_sum   'Zn4 Bi2 Sb2 O12'
_cell_volume   253.67024774
_cell_formula_units_Z   2
loop_
 _symmetry_equiv_pos_site_id
 _symmetry_equiv_pos_as_xyz
  1  'x, y, z'
loop_
 _atom_site_type_symbol
 _atom_site_label
 _atom_site_symmetry_multiplicity
 _atom_site_fract_x
 _atom_site_fract_y
 _atom_site_fract_z
 _atom_site_occupancy
  Zn  Zn0  1  0.494075  0.522775  0.750000  1
  Zn  Zn1  1  0.505925  0.477225  0.250000  1
  Zn  Zn2  1  0.032304  0.011303  0.750000  1
  Zn  Zn3  1  0.967696  0.988697  0.250000  1
  Bi  Bi4  1  0.500000  0.000000  0.500000  1
  Bi  Bi5  1  0.500000  0.000000  0.000000  1
  Sb  Sb6  1  0.000000  0.500000  0.500000  1
  Sb  Sb7  1  0.000000  0.500000  0.000000  1
  O  O8  1  0.307594  0.639325  0.427791  1
  O  O9  1  0.126863  0.181468  0.072395  1
  O  O10  1  0.692406  0.360675  0.927791  1
  O  O11  1  0.873137  0.818532  0.572395  1
  O  O12  1  0.126863  0.181468  0.427605  1
  O  O13  1  0.873137  0.818532  0.927605  1
  O  O14  1  0.863056  0.611934  0.250000  1
  O  O15  1  0.307594  0.639325  0.072209  1
  O  O16  1  0.367677  0.865930  0.750000  1
  O  O17  1  0.692406  0.360675  0.572209  1
  O  O18  1  0.136944  0.388066  0.750000  1
  O  O19  1  0.632323  0.134070  0.250000  1
