# generated using pymatgen
data_Sr4CaMn2(SO3)2
_symmetry_space_group_name_H-M   'P 1'
_cell_length_a   3.92084327
_cell_length_b   3.92063056
_cell_length_c   17.02192050
_cell_angle_alpha   90.00040056
_cell_angle_beta   90.00026163
_cell_angle_gamma   90.00050241
_symmetry_Int_Tables_number   1
_chemical_formula_structural   Sr4CaMn2(SO3)2
_chemical_formula_sum   'Sr4 Ca1 Mn2 S2 O6'
_cell_volume   261.66399089
_cell_formula_units_Z   1
loop_
 _symmetry_equiv_pos_site_id
 _symmetry_equiv_pos_as_xyz
  1  'x, y, z'
loop_
 _atom_site_type_symbol
 _atom_site_label
 _atom_site_symmetry_multiplicity
 _atom_site_fract_x
 _atom_site_fract_y
 _atom_site_fract_z
 _atom_site_occupancy
  Sr  Sr0  1  0.749988  0.749991  0.203494  1
  Sr  Sr1  1  0.250009  0.250014  0.796507  1
  Sr  Sr2  1  0.749992  0.749989  0.420915  1
  Sr  Sr3  1  0.250008  0.250003  0.579077  1
  Ca  Ca4  1  0.250003  0.750000  0.000016  1
  Mn  Mn5  1  0.249995  0.249987  0.317416  1
  Mn  Mn6  1  0.750018  0.750013  0.682560  1
  S  S7  1  0.249980  0.249999  0.111062  1
  S  S8  1  0.750001  0.750007  0.888934  1
  O  O9  1  0.749986  0.249992  0.300295  1
  O  O10  1  0.249989  0.749986  0.300009  1
  O  O11  1  0.250013  0.750012  0.699992  1
  O  O12  1  0.750013  0.250012  0.699708  1
  O  O13  1  0.249998  0.249988  0.435756  1
  O  O14  1  0.750007  0.750009  0.564261  1
