# generated using pymatgen
data_HoMg(SnO3)2
_symmetry_space_group_name_H-M   'P 1'
_cell_length_a   5.49797681
_cell_length_b   5.75116430
_cell_length_c   8.11175737
_cell_angle_alpha   90.01053923
_cell_angle_beta   89.99390030
_cell_angle_gamma   89.99271613
_symmetry_Int_Tables_number   1
_chemical_formula_structural   HoMg(SnO3)2
_chemical_formula_sum   'Ho2 Mg2 Sn4 O12'
_cell_volume   256.49187749
_cell_formula_units_Z   2
loop_
 _symmetry_equiv_pos_site_id
 _symmetry_equiv_pos_as_xyz
  1  'x, y, z'
loop_
 _atom_site_type_symbol
 _atom_site_label
 _atom_site_symmetry_multiplicity
 _atom_site_fract_x
 _atom_site_fract_y
 _atom_site_fract_z
 _atom_site_occupancy
  Ho  Ho0  1  0.018394  0.933756  0.750040  1
  Ho  Ho1  1  0.518647  0.566828  0.249974  1
  Mg  Mg2  1  0.501346  0.474820  0.750001  1
  Mg  Mg3  1  0.001574  0.024932  0.249993  1
  Sn  Sn4  1  0.002373  0.489931  0.000440  1
  Sn  Sn5  1  0.002425  0.489848  0.499554  1
  Sn  Sn6  1  0.502491  0.010325  0.500473  1
  Sn  Sn7  1  0.502532  0.010330  0.999535  1
  O  O8  1  0.137191  0.411665  0.249859  1
  O  O9  1  0.173174  0.178360  0.932205  1
  O  O10  1  0.173460  0.178038  0.567748  1
  O  O11  1  0.315444  0.686420  0.923857  1
  O  O12  1  0.315821  0.686810  0.576134  1
  O  O13  1  0.356792  0.931376  0.250219  1
  O  O14  1  0.637257  0.088314  0.749781  1
  O  O15  1  0.674582  0.323053  0.432030  1
  O  O16  1  0.674963  0.323286  0.067928  1
  O  O17  1  0.817652  0.811399  0.076243  1
  O  O18  1  0.817260  0.811717  0.423864  1
  O  O19  1  0.856623  0.568789  0.750121  1
