# generated using pymatgen
data_CaSnAs2O7
_symmetry_space_group_name_H-M   'P 1'
_cell_length_a   7.91123334
_cell_length_b   9.47260867
_cell_length_c   9.97287924
_cell_angle_alpha   90.00000000
_cell_angle_beta   115.95091507
_cell_angle_gamma   90.00000000
_symmetry_Int_Tables_number   1
_chemical_formula_structural   CaSnAs2O7
_chemical_formula_sum   'Ca4 Sn4 As8 O28'
_cell_volume   672.01010730
_cell_formula_units_Z   4
loop_
 _symmetry_equiv_pos_site_id
 _symmetry_equiv_pos_as_xyz
  1  'x, y, z'
loop_
 _atom_site_type_symbol
 _atom_site_label
 _atom_site_symmetry_multiplicity
 _atom_site_fract_x
 _atom_site_fract_y
 _atom_site_fract_z
 _atom_site_occupancy
  Ca  Ca0  1  0.263697  0.946497  0.922788  1
  Ca  Ca1  1  0.736303  0.446497  0.577212  1
  Ca  Ca2  1  0.736303  0.053503  0.077212  1
  Ca  Ca3  1  0.263697  0.553503  0.422788  1
  Sn  Sn4  1  0.760797  0.047595  0.644127  1
  Sn  Sn5  1  0.239203  0.547595  0.855873  1
  Sn  Sn6  1  0.239203  0.952405  0.355873  1
  Sn  Sn7  1  0.760797  0.452405  0.144127  1
  As  As8  1  0.415301  0.243884  0.725047  1
  As  As9  1  0.584699  0.743884  0.774953  1
  As  As10  1  0.584699  0.756116  0.274953  1
  As  As11  1  0.415301  0.256116  0.225046  1
  As  As12  1  0.003602  0.275777  0.940675  1
  As  As13  1  0.996398  0.775777  0.559325  1
  As  As14  1  0.996398  0.724223  0.059325  1
  As  As15  1  0.003602  0.224223  0.440675  1
  O  O16  1  0.874739  0.259092  0.038454  1
  O  O17  1  0.125261  0.759092  0.461546  1
  O  O18  1  0.125261  0.740908  0.961546  1
  O  O19  1  0.874739  0.240908  0.538454  1
  O  O20  1  0.331342  0.412619  0.705618  1
  O  O21  1  0.668658  0.912619  0.794382  1
  O  O22  1  0.668658  0.587381  0.294382  1
  O  O23  1  0.331342  0.087381  0.205618  1
  O  O24  1  0.435796  0.140676  0.872026  1
  O  O25  1  0.564204  0.640676  0.627974  1
  O  O26  1  0.564204  0.859324  0.127974  1
  O  O27  1  0.435796  0.359324  0.372026  1
  O  O28  1  0.235498  0.162061  0.561716  1
  O  O29  1  0.764502  0.662061  0.938284  1
  O  O30  1  0.764502  0.837939  0.438284  1
  O  O31  1  0.235498  0.337939  0.061716  1
  O  O32  1  0.955310  0.087126  0.319692  1
  O  O33  1  0.044690  0.587126  0.180308  1
  O  O34  1  0.044690  0.912874  0.680308  1
  O  O35  1  0.955310  0.412874  0.819692  1
  O  O36  1  0.613507  0.256378  0.196218  1
  O  O37  1  0.386493  0.756378  0.303782  1
  O  O38  1  0.386493  0.743622  0.803782  1
  O  O39  1  0.613507  0.243622  0.696218  1
  O  O40  1  0.009889  0.385411  0.362387  1
  O  O41  1  0.990111  0.885411  0.137613  1
  O  O42  1  0.990111  0.614589  0.637613  1
  O  O43  1  0.009889  0.114589  0.862387  1
