# generated using pymatgen
data_Mn5Zn4(TeO6)3
_symmetry_space_group_name_H-M   'P 1'
_cell_length_a   8.87695626
_cell_length_b   8.87695649
_cell_length_c   10.79210797
_cell_angle_alpha   87.40848178
_cell_angle_beta   87.40848085
_cell_angle_gamma   61.17444333
_symmetry_Int_Tables_number   1
_chemical_formula_structural   Mn5Zn4(TeO6)3
_chemical_formula_sum   'Mn10 Zn8 Te6 O36'
_cell_volume   744.01920764
_cell_formula_units_Z   2
loop_
 _symmetry_equiv_pos_site_id
 _symmetry_equiv_pos_as_xyz
  1  'x, y, z'
loop_
 _atom_site_type_symbol
 _atom_site_label
 _atom_site_symmetry_multiplicity
 _atom_site_fract_x
 _atom_site_fract_y
 _atom_site_fract_z
 _atom_site_occupancy
  Mn  Mn0  1  0.807133  0.474689  0.990539  1
  Mn  Mn1  1  0.082620  0.199329  0.490934  1
  Mn  Mn2  1  0.352903  0.325572  0.305757  1
  Mn  Mn3  1  0.933809  0.744382  0.805614  1
  Mn  Mn4  1  0.674428  0.647097  0.694243  1
  Mn  Mn5  1  0.998744  0.001256  0.000000  1
  Mn  Mn6  1  0.609862  0.390138  0.500000  1
  Mn  Mn7  1  0.255618  0.066192  0.194386  1
  Mn  Mn8  1  0.800671  0.917380  0.509066  1
  Mn  Mn9  1  0.525311  0.192867  0.009461  1
  Zn  Zn10  1  0.861869  0.542048  0.322906  1
  Zn  Zn11  1  0.480555  0.580753  0.197085  1
  Zn  Zn12  1  0.457952  0.138131  0.677094  1
  Zn  Zn13  1  0.419247  0.519445  0.802915  1
  Zn  Zn14  1  0.189801  0.872040  0.697102  1
  Zn  Zn15  1  0.150275  0.252996  0.822849  1
  Zn  Zn16  1  0.747004  0.849725  0.177151  1
  Zn  Zn17  1  0.127960  0.810199  0.302898  1
  Te  Te18  1  0.470832  0.856899  0.944953  1
  Te  Te19  1  0.804346  0.196265  0.249915  1
  Te  Te20  1  0.803735  0.195654  0.750085  1
  Te  Te21  1  0.465154  0.862320  0.444896  1
  Te  Te22  1  0.137680  0.534846  0.555104  1
  Te  Te23  1  0.143101  0.529168  0.055047  1
  O  O24  1  0.399781  0.082656  0.854232  1
  O  O25  1  0.728300  0.422666  0.816744  1
  O  O26  1  0.560533  0.641567  0.530533  1
  O  O27  1  0.718634  0.149378  0.406666  1
  O  O28  1  0.577334  0.271700  0.183256  1
  O  O29  1  0.850622  0.281366  0.593334  1
  O  O30  1  0.368562  0.794391  0.305971  1
  O  O31  1  0.047631  0.098931  0.801361  1
  O  O32  1  0.560168  0.292331  0.698635  1
  O  O33  1  0.067523  0.433634  0.421879  1
  O  O34  1  0.555828  0.643043  0.041349  1
  O  O35  1  0.541361  0.958066  0.078067  1
  O  O36  1  0.878107  0.969044  0.683424  1
  O  O37  1  0.695076  0.757331  0.862212  1
  O  O38  1  0.356957  0.444172  0.958651  1
  O  O39  1  0.239543  0.597312  0.193915  1
  O  O40  1  0.052243  0.748944  0.458820  1
  O  O41  1  0.242669  0.304924  0.137788  1
  O  O42  1  0.358433  0.439467  0.469467  1
  O  O43  1  0.251056  0.947757  0.541180  1
  O  O44  1  0.691152  0.791429  0.354321  1
  O  O45  1  0.913447  0.633653  0.637857  1
  O  O46  1  0.901069  0.952369  0.198639  1
  O  O47  1  0.402688  0.760457  0.806085  1
  O  O48  1  0.047279  0.750059  0.969486  1
  O  O49  1  0.757443  0.109997  0.907176  1
  O  O50  1  0.041934  0.458639  0.921933  1
  O  O51  1  0.205609  0.631438  0.694029  1
  O  O52  1  0.030956  0.121893  0.316576  1
  O  O53  1  0.366347  0.086553  0.362143  1
  O  O54  1  0.208571  0.308848  0.645679  1
  O  O55  1  0.890003  0.242557  0.092824  1
  O  O56  1  0.707669  0.439832  0.301365  1
  O  O57  1  0.566366  0.932477  0.578121  1
  O  O58  1  0.249941  0.952721  0.030514  1
  O  O59  1  0.917344  0.600219  0.145768  1
