# generated using pymatgen
data_TiBi(PO4)3
_symmetry_space_group_name_H-M   'P 1'
_cell_length_a   9.00952622
_cell_length_b   9.00952588
_cell_length_c   9.00952669
_cell_angle_alpha   58.55342659
_cell_angle_beta   58.55342910
_cell_angle_gamma   58.55343265
_symmetry_Int_Tables_number   1
_chemical_formula_structural   TiBi(PO4)3
_chemical_formula_sum   'Ti2 Bi2 P6 O24'
_cell_volume   500.01230602
_cell_formula_units_Z   2
loop_
 _symmetry_equiv_pos_site_id
 _symmetry_equiv_pos_as_xyz
  1  'x, y, z'
loop_
 _atom_site_type_symbol
 _atom_site_label
 _atom_site_symmetry_multiplicity
 _atom_site_fract_x
 _atom_site_fract_y
 _atom_site_fract_z
 _atom_site_occupancy
  Ti  Ti0  1  0.139388  0.139388  0.139388  1
  Ti  Ti1  1  0.639388  0.639388  0.639388  1
  Bi  Bi2  1  0.354324  0.354324  0.354324  1
  Bi  Bi3  1  0.854324  0.854324  0.854324  1
  P  P4  1  0.033442  0.455030  0.754393  1
  P  P5  1  0.455030  0.754393  0.033442  1
  P  P6  1  0.754393  0.033442  0.455030  1
  P  P7  1  0.254393  0.955030  0.533442  1
  P  P8  1  0.533442  0.254393  0.955030  1
  P  P9  1  0.955030  0.533442  0.254393  1
  O  O10  1  0.118356  0.528983  0.276226  1
  O  O11  1  0.276226  0.118356  0.528983  1
  O  O12  1  0.056922  0.283180  0.929474  1
  O  O13  1  0.528983  0.276226  0.118356  1
  O  O14  1  0.028983  0.618356  0.776226  1
  O  O15  1  0.220585  0.428791  0.591174  1
  O  O16  1  0.283180  0.929474  0.056922  1
  O  O17  1  0.428791  0.591174  0.220585  1
  O  O18  1  0.217238  0.998845  0.365393  1
  O  O19  1  0.591174  0.220585  0.428791  1
  O  O20  1  0.091174  0.928791  0.720585  1
  O  O21  1  0.365393  0.217238  0.998845  1
  O  O22  1  0.618356  0.776226  0.028983  1
  O  O23  1  0.929474  0.056922  0.283180  1
  O  O24  1  0.429474  0.783180  0.556922  1
  O  O25  1  0.776226  0.028983  0.618356  1
  O  O26  1  0.556922  0.429474  0.783180  1
  O  O27  1  0.720585  0.091174  0.928791  1
  O  O28  1  0.783180  0.556922  0.429474  1
  O  O29  1  0.998845  0.365393  0.217238  1
  O  O30  1  0.498845  0.717238  0.865393  1
  O  O31  1  0.928791  0.720585  0.091174  1
  O  O32  1  0.717238  0.865393  0.498845  1
  O  O33  1  0.865393  0.498845  0.717238  1
