# generated using pymatgen
data_CaV3(P2O7)2
_symmetry_space_group_name_H-M   'P 1'
_cell_length_a   7.60853533
_cell_length_b   7.86299160
_cell_length_c   9.61836846
_cell_angle_alpha   90.00000000
_cell_angle_beta   111.79647552
_cell_angle_gamma   90.00000000
_symmetry_Int_Tables_number   1
_chemical_formula_structural   CaV3(P2O7)2
_chemical_formula_sum   'Ca2 V6 P8 O28'
_cell_volume   534.28901669
_cell_formula_units_Z   2
loop_
 _symmetry_equiv_pos_site_id
 _symmetry_equiv_pos_as_xyz
  1  'x, y, z'
loop_
 _atom_site_type_symbol
 _atom_site_label
 _atom_site_symmetry_multiplicity
 _atom_site_fract_x
 _atom_site_fract_y
 _atom_site_fract_z
 _atom_site_occupancy
  Ca  Ca0  1  0.500000  0.000000  0.000000  1
  Ca  Ca1  1  0.500000  0.500000  0.500000  1
  V  V2  1  0.188261  0.870995  0.525512  1
  V  V3  1  0.811739  0.370995  0.974488  1
  V  V4  1  0.811739  0.129005  0.474488  1
  V  V5  1  0.188261  0.629005  0.025512  1
  V  V6  1  -0.000000  0.000000  0.000000  1
  V  V7  1  -0.000000  0.500000  0.500000  1
  P  P8  1  0.599846  0.064081  0.705779  1
  P  P9  1  0.400154  0.564081  0.794221  1
  P  P10  1  0.400154  0.935919  0.294221  1
  P  P11  1  0.599846  0.435919  0.205779  1
  P  P12  1  0.875848  0.796759  0.688891  1
  P  P13  1  0.124152  0.296759  0.811109  1
  P  P14  1  0.124152  0.203241  0.311109  1
  P  P15  1  0.875848  0.703241  0.188891  1
  O  O16  1  0.821905  0.627601  0.606082  1
  O  O17  1  0.178095  0.127601  0.893918  1
  O  O18  1  0.178095  0.372399  0.393918  1
  O  O19  1  0.821905  0.872399  0.106082  1
  O  O20  1  0.275327  0.615830  0.629817  1
  O  O21  1  0.724673  0.115830  0.870183  1
  O  O22  1  0.724673  0.384170  0.370183  1
  O  O23  1  0.275327  0.884170  0.129817  1
  O  O24  1  0.619211  0.190751  0.592098  1
  O  O25  1  0.380789  0.690751  0.907902  1
  O  O26  1  0.380789  0.809249  0.407902  1
  O  O27  1  0.619211  0.309249  0.092098  1
  O  O28  1  0.677322  0.881674  0.676511  1
  O  O29  1  0.322678  0.381674  0.823489  1
  O  O30  1  0.322678  0.118326  0.323489  1
  O  O31  1  0.677322  0.618326  0.176511  1
  O  O32  1  0.402404  0.477829  0.200763  1
  O  O33  1  0.597596  0.977829  0.299237  1
  O  O34  1  0.597596  0.522171  0.799237  1
  O  O35  1  0.402404  0.022171  0.700763  1
  O  O36  1  0.011126  0.213801  0.142318  1
  O  O37  1  0.988874  0.713801  0.357682  1
  O  O38  1  0.988874  0.786199  0.857682  1
  O  O39  1  0.011126  0.286199  0.642318  1
  O  O40  1  0.966420  0.580579  0.111009  1
  O  O41  1  0.033580  0.080579  0.388991  1
  O  O42  1  0.033580  0.419421  0.888991  1
  O  O43  1  0.966420  0.919421  0.611009  1
