# generated using pymatgen
data_LaVZnCrO6
_symmetry_space_group_name_H-M   'P 1'
_cell_length_a   5.35564242
_cell_length_b   5.44874624
_cell_length_c   7.77106809
_cell_angle_alpha   90.00000000
_cell_angle_beta   89.87661527
_cell_angle_gamma   90.00000000
_symmetry_Int_Tables_number   1
_chemical_formula_structural   LaVZnCrO6
_chemical_formula_sum   'La2 V2 Zn2 Cr2 O12'
_cell_volume   226.77118104
_cell_formula_units_Z   2
loop_
 _symmetry_equiv_pos_site_id
 _symmetry_equiv_pos_as_xyz
  1  'x, y, z'
loop_
 _atom_site_type_symbol
 _atom_site_label
 _atom_site_symmetry_multiplicity
 _atom_site_fract_x
 _atom_site_fract_y
 _atom_site_fract_z
 _atom_site_occupancy
  La  La0  1  0.006385  0.962877  0.751113  1
  La  La1  1  0.506385  0.537123  0.251113  1
  V  V2  1  0.497703  0.014560  0.000240  1
  V  V3  1  0.997703  0.485440  0.500240  1
  Zn  Zn4  1  0.492024  0.483964  0.748180  1
  Zn  Zn5  1  0.992024  0.016036  0.248180  1
  Cr  Cr6  1  0.500136  0.002029  0.501515  1
  Cr  Cr7  1  0.000136  0.497971  0.001515  1
  O  O8  1  0.076240  0.456901  0.251129  1
  O  O9  1  0.218129  0.218323  0.947267  1
  O  O10  1  0.210008  0.225883  0.545736  1
  O  O11  1  0.317044  0.704126  0.946433  1
  O  O12  1  0.309091  0.693415  0.560606  1
  O  O13  1  0.373239  0.979467  0.247781  1
  O  O14  1  0.576240  0.043099  0.751129  1
  O  O15  1  0.718128  0.281677  0.447267  1
  O  O16  1  0.710008  0.274117  0.045736  1
  O  O17  1  0.817044  0.795874  0.446433  1
  O  O18  1  0.809091  0.806585  0.060606  1
  O  O19  1  0.873239  0.520533  0.747781  1
