# generated using pymatgen
data_YV3O6
_symmetry_space_group_name_H-M   'P 1'
_cell_length_a   18.69711047
_cell_length_b   6.29544179
_cell_length_c   6.29544145
_cell_angle_alpha   60.10445333
_cell_angle_beta   59.48790212
_cell_angle_gamma   59.48789739
_symmetry_Int_Tables_number   1
_chemical_formula_structural   YV3O6
_chemical_formula_sum   'Y4 V12 O24'
_cell_volume   520.28677923
_cell_formula_units_Z   4
loop_
 _symmetry_equiv_pos_site_id
 _symmetry_equiv_pos_as_xyz
  1  'x, y, z'
loop_
 _atom_site_type_symbol
 _atom_site_label
 _atom_site_symmetry_multiplicity
 _atom_site_fract_x
 _atom_site_fract_y
 _atom_site_fract_z
 _atom_site_occupancy
  Y  Y0  1  0.221981  0.611562  0.611562  1
  Y  Y1  1  0.537121  0.629984  0.629984  1
  Y  Y2  1  0.111352  0.388438  0.388438  1
  Y  Y3  1  0.796213  0.370016  0.370016  1
  V  V4  1  0.998799  0.508509  0.998060  1
  V  V5  1  0.334534  0.491491  0.001940  1
  V  V6  1  0.666667  0.500000  -0.000000  1
  V  V7  1  0.997551  0.997933  0.997933  1
  V  V8  1  0.335782  0.002067  0.002067  1
  V  V9  1  0.666667  0.000000  -0.000000  1
  V  V10  1  0.166667  0.000000  -0.000000  1
  V  V11  1  0.493815  0.006644  0.006644  1
  V  V12  1  0.839518  0.993356  0.993356  1
  V  V13  1  0.998799  0.998060  0.508509  1
  V  V14  1  0.334534  0.001940  0.491491  1
  V  V15  1  0.666667  0.000000  0.500000  1
  O  O16  1  0.079923  0.753745  0.753745  1
  O  O17  1  0.398844  0.767307  0.767307  1
  O  O18  1  0.725200  0.773379  0.773379  1
  O  O19  1  0.079933  0.227881  0.801929  1
  O  O20  1  0.403475  0.239149  0.810982  1
  O  O21  1  0.748666  0.228878  0.791555  1
  O  O22  1  0.079933  0.801929  0.227881  1
  O  O23  1  0.403475  0.810982  0.239149  1
  O  O24  1  0.748666  0.791555  0.228878  1
  O  O25  1  0.077313  0.232119  0.232119  1
  O  O26  1  0.402609  0.240677  0.240677  1
  O  O27  1  0.749492  0.229057  0.229057  1
  O  O28  1  0.253401  0.772119  0.198071  1
  O  O29  1  0.584667  0.771122  0.208445  1
  O  O30  1  0.929858  0.760851  0.189018  1
  O  O31  1  0.253410  0.246255  0.246255  1
  O  O32  1  0.608133  0.226621  0.226621  1
  O  O33  1  0.934490  0.232693  0.232693  1
  O  O34  1  0.253401  0.198071  0.772119  1
  O  O35  1  0.584667  0.208445  0.771122  1
  O  O36  1  0.929858  0.189018  0.760851  1
  O  O37  1  0.256020  0.767881  0.767881  1
  O  O38  1  0.583841  0.770943  0.770943  1
  O  O39  1  0.930725  0.759323  0.759323  1
