# generated using pymatgen
data_Al(BiO3)3
_symmetry_space_group_name_H-M   'P 1'
_cell_length_a   3.60032555
_cell_length_b   3.60032513
_cell_length_c   12.52259359
_cell_angle_alpha   90.00000873
_cell_angle_beta   90.00000415
_cell_angle_gamma   90.00007718
_symmetry_Int_Tables_number   1
_chemical_formula_structural   Al(BiO3)3
_chemical_formula_sum   'Al1 Bi3 O9'
_cell_volume   162.32214778
_cell_formula_units_Z   1
loop_
 _symmetry_equiv_pos_site_id
 _symmetry_equiv_pos_as_xyz
  1  'x, y, z'
loop_
 _atom_site_type_symbol
 _atom_site_label
 _atom_site_symmetry_multiplicity
 _atom_site_fract_x
 _atom_site_fract_y
 _atom_site_fract_z
 _atom_site_occupancy
  Al  Al0  1  0.499999  0.500002  0.166063  1
  Bi  Bi1  1  1.000000  -0.000000  0.947896  1
  Bi  Bi2  1  0.000000  0.000000  0.385472  1
  Bi  Bi3  1  0.000000  -0.000000  0.666595  1
  O  O4  1  0.500000  -0.000002  0.166766  1
  O  O5  1  0.500000  -0.000000  0.507411  1
  O  O6  1  0.500000  -0.000000  0.825768  1
  O  O7  1  0.500000  0.500000  0.011091  1
  O  O8  1  0.500000  0.500000  0.323111  1
  O  O9  1  0.500000  0.500000  0.666550  1
  O  O10  1  0.000001  0.500000  0.166766  1
  O  O11  1  0.000000  0.500000  0.507411  1
  O  O12  1  0.000000  0.500000  0.825768  1
