# generated using pymatgen
data_TaBiO5
_symmetry_space_group_name_H-M   'P 1'
_cell_length_a   6.15325836
_cell_length_b   11.90006911
_cell_length_c   16.05099391
_cell_angle_alpha   90.00000000
_cell_angle_beta   90.00000000
_cell_angle_gamma   90.00000000
_symmetry_Int_Tables_number   1
_chemical_formula_structural   TaBiO5
_chemical_formula_sum   'Ta8 Bi8 O40'
_cell_volume   1175.32118402
_cell_formula_units_Z   8
loop_
 _symmetry_equiv_pos_site_id
 _symmetry_equiv_pos_as_xyz
  1  'x, y, z'
loop_
 _atom_site_type_symbol
 _atom_site_label
 _atom_site_symmetry_multiplicity
 _atom_site_fract_x
 _atom_site_fract_y
 _atom_site_fract_z
 _atom_site_occupancy
  Ta  Ta0  1  0.979549  0.397670  0.615899  1
  Ta  Ta1  1  0.520451  0.897670  0.384102  1
  Ta  Ta2  1  0.020451  0.602330  0.384102  1
  Ta  Ta3  1  0.479549  0.102330  0.615899  1
  Ta  Ta4  1  0.020451  0.102330  0.115898  1
  Ta  Ta5  1  0.979549  0.897670  0.884101  1
  Ta  Ta6  1  0.520451  0.397670  0.115898  1
  Ta  Ta7  1  0.479549  0.602330  0.884101  1
  Bi  Bi8  1  0.919615  0.817950  0.205883  1
  Bi  Bi9  1  0.080385  0.182050  0.794117  1
  Bi  Bi10  1  0.580385  0.317950  0.794117  1
  Bi  Bi11  1  0.080385  0.682050  0.705883  1
  Bi  Bi12  1  0.419615  0.182050  0.294117  1
  Bi  Bi13  1  0.419615  0.682050  0.205883  1
  Bi  Bi14  1  0.580385  0.817950  0.705883  1
  Bi  Bi15  1  0.919615  0.317950  0.294117  1
  O  O16  1  0.876947  0.293169  0.704056  1
  O  O17  1  0.258602  0.044239  0.068875  1
  O  O18  1  0.241398  0.544239  0.931125  1
  O  O19  1  0.225331  0.799180  0.144743  1
  O  O20  1  0.274669  0.299180  0.855257  1
  O  O21  1  0.876947  0.793169  0.795944  1
  O  O22  1  0.274669  0.799180  0.644743  1
  O  O23  1  0.623053  0.793169  0.295944  1
  O  O24  1  0.258602  0.544239  0.431125  1
  O  O25  1  0.123053  0.706831  0.295944  1
  O  O26  1  0.623053  0.293169  0.204056  1
  O  O27  1  0.637592  0.177339  0.538318  1
  O  O28  1  0.758602  0.955761  0.431125  1
  O  O29  1  0.774669  0.700820  0.644743  1
  O  O30  1  0.154232  0.012630  0.830768  1
  O  O31  1  0.758602  0.455761  0.068875  1
  O  O32  1  0.123053  0.206831  0.204056  1
  O  O33  1  0.725331  0.200820  0.355257  1
  O  O34  1  0.137592  0.822661  0.961682  1
  O  O35  1  0.241398  0.044239  0.568875  1
  O  O36  1  0.362408  0.822661  0.461682  1
  O  O37  1  0.845768  0.987370  0.169232  1
  O  O38  1  0.774669  0.200820  0.855257  1
  O  O39  1  0.654232  0.987370  0.669232  1
  O  O40  1  0.362408  0.322661  0.038318  1
  O  O41  1  0.137592  0.322661  0.538318  1
  O  O42  1  0.741398  0.455761  0.568875  1
  O  O43  1  0.741398  0.955761  0.931125  1
  O  O44  1  0.654232  0.487370  0.830768  1
  O  O45  1  0.862408  0.677339  0.461682  1
  O  O46  1  0.862408  0.177339  0.038318  1
  O  O47  1  0.637592  0.677339  0.961682  1
  O  O48  1  0.845768  0.487370  0.330768  1
  O  O49  1  0.725331  0.700820  0.144743  1
  O  O50  1  0.225331  0.299180  0.355257  1
  O  O51  1  0.154232  0.512630  0.669232  1
  O  O52  1  0.345768  0.512630  0.169232  1
  O  O53  1  0.376947  0.206831  0.704056  1
  O  O54  1  0.345768  0.012630  0.330768  1
  O  O55  1  0.376947  0.706831  0.795944  1
