# generated using pymatgen
data_Y5Be6Fe3(SiO5)6
_symmetry_space_group_name_H-M   'P 1'
_cell_length_a   14.19003061
_cell_length_b   7.63242645
_cell_length_c   10.08172866
_cell_angle_alpha   89.99477720
_cell_angle_beta   90.10080981
_cell_angle_gamma   89.95366459
_symmetry_Int_Tables_number   1
_chemical_formula_structural   Y5Be6Fe3(SiO5)6
_chemical_formula_sum   'Y10 Be12 Fe6 Si12 O60'
_cell_volume   1091.89316755
_cell_formula_units_Z   2
loop_
 _symmetry_equiv_pos_site_id
 _symmetry_equiv_pos_as_xyz
  1  'x, y, z'
loop_
 _atom_site_type_symbol
 _atom_site_label
 _atom_site_symmetry_multiplicity
 _atom_site_fract_x
 _atom_site_fract_y
 _atom_site_fract_z
 _atom_site_occupancy
  Y  Y0  1  0.332636  0.399502  0.835694  1
  Y  Y1  1  0.666387  0.400213  0.832940  1
  Y  Y2  1  0.003831  0.387340  0.827078  1
  Y  Y3  1  0.328975  0.893711  0.671154  1
  Y  Y4  1  0.668891  0.894963  0.669152  1
  Y  Y5  1  0.004662  0.604614  0.169049  1
  Y  Y6  1  0.662556  0.603682  0.171033  1
  Y  Y7  1  0.330793  0.109718  0.328337  1
  Y  Y8  1  0.667430  0.104788  0.330119  1
  Y  Y9  1  0.003538  0.098615  0.337737  1
  Be  Be10  1  0.151608  0.081834  0.835792  1
  Be  Be11  1  0.486027  0.084412  0.839451  1
  Be  Be12  1  0.821636  0.089986  0.838798  1
  Be  Be13  1  0.180800  0.584417  0.661028  1
  Be  Be14  1  0.513717  0.591867  0.660949  1
  Be  Be15  1  0.848562  0.585084  0.662473  1
  Be  Be16  1  0.181112  0.907770  0.162065  1
  Be  Be17  1  0.512362  0.916904  0.160206  1
  Be  Be18  1  0.848437  0.911767  0.161809  1
  Be  Be19  1  0.154698  0.410648  0.340126  1
  Be  Be20  1  0.483098  0.413373  0.335763  1
  Be  Be21  1  0.820108  0.418185  0.338104  1
  Fe  Fe22  1  0.003468  0.995276  0.990411  1
  Fe  Fe23  1  0.328357  0.982727  0.005119  1
  Fe  Fe24  1  0.667488  0.999663  0.999645  1
  Fe  Fe25  1  0.000584  0.514912  0.502765  1
  Fe  Fe26  1  0.331618  0.506350  0.491210  1
  Fe  Fe27  1  0.666496  0.502542  0.498908  1
  Si  Si28  1  0.172798  0.228589  0.582897  1
  Si  Si29  1  0.506163  0.220719  0.579375  1
  Si  Si30  1  0.839476  0.220929  0.575467  1
  Si  Si31  1  0.160129  0.725610  0.920033  1
  Si  Si32  1  0.494198  0.718764  0.917240  1
  Si  Si33  1  0.827736  0.716557  0.921305  1
  Si  Si34  1  0.160303  0.788344  0.419220  1
  Si  Si35  1  0.491833  0.775593  0.419700  1
  Si  Si36  1  0.829076  0.778103  0.422374  1
  Si  Si37  1  0.172744  0.279944  0.076998  1
  Si  Si38  1  0.504402  0.276335  0.080087  1
  Si  Si39  1  0.840683  0.275170  0.081634  1
  O  O40  1  0.241136  0.398333  0.633668  1
  O  O41  1  0.567739  0.394716  0.637208  1
  O  O42  1  0.900381  0.389214  0.634079  1
  O  O43  1  0.098797  0.896175  0.865640  1
  O  O44  1  0.432930  0.892447  0.864854  1
  O  O45  1  0.767818  0.893111  0.863738  1
  O  O46  1  0.102782  0.607281  0.364898  1
  O  O47  1  0.434836  0.600905  0.370950  1
  O  O48  1  0.762079  0.609432  0.362174  1
  O  O49  1  0.232575  0.108105  0.135501  1
  O  O50  1  0.574869  0.106233  0.130865  1
  O  O51  1  0.899091  0.103861  0.141780  1
  O  O52  1  0.072393  0.548994  0.658757  1
  O  O53  1  0.402688  0.594275  0.657714  1
  O  O54  1  0.733161  0.584144  0.659651  1
  O  O55  1  0.266115  0.072740  0.841334  1
  O  O56  1  0.600182  0.080952  0.838569  1
  O  O57  1  0.927635  0.116579  0.861498  1
  O  O58  1  0.263913  0.383653  0.356830  1
  O  O59  1  0.598419  0.417189  0.340884  1
  O  O60  1  0.931152  0.429340  0.340229  1
  O  O61  1  0.229624  0.798752  0.039210  1
  O  O62  1  0.563545  0.794118  0.039746  1
  O  O63  1  0.897025  0.793943  0.039941  1
  O  O64  1  0.246056  0.407761  0.007124  1
  O  O65  1  0.586870  0.413933  0.030774  1
  O  O66  1  0.916916  0.419162  0.036174  1
  O  O67  1  0.079528  0.920402  0.463324  1
  O  O68  1  0.415759  0.915904  0.473741  1
  O  O69  1  0.744785  0.911807  0.468849  1
  O  O70  1  0.109236  0.183998  0.712382  1
  O  O71  1  0.440519  0.149296  0.700301  1
  O  O72  1  0.771700  0.154431  0.700197  1
  O  O73  1  0.251023  0.084285  0.537063  1
  O  O74  1  0.589227  0.087535  0.529328  1
  O  O75  1  0.907778  0.088372  0.503390  1
  O  O76  1  0.101062  0.294716  0.460240  1
  O  O77  1  0.437228  0.291504  0.460830  1
  O  O78  1  0.763685  0.302361  0.461273  1
  O  O79  1  0.080196  0.586043  0.969363  1
  O  O80  1  0.421482  0.569942  0.954695  1
  O  O81  1  0.742645  0.590284  0.975509  1
  O  O82  1  0.230643  0.706894  0.538675  1
  O  O83  1  0.567401  0.708372  0.539380  1
  O  O84  1  0.893671  0.696034  0.540399  1
  O  O85  1  0.098338  0.199023  0.965192  1
  O  O86  1  0.439954  0.207186  0.954125  1
  O  O87  1  0.764443  0.206787  0.962996  1
  O  O88  1  0.106435  0.350236  0.200258  1
  O  O89  1  0.442371  0.323107  0.207294  1
  O  O90  1  0.769938  0.341581  0.203122  1
  O  O91  1  0.227934  0.863908  0.302678  1
  O  O92  1  0.561263  0.844256  0.297827  1
  O  O93  1  0.894780  0.835291  0.296468  1
  O  O94  1  0.228332  0.662945  0.795876  1
  O  O95  1  0.568148  0.665868  0.795451  1
  O  O96  1  0.888939  0.628302  0.805914  1
  O  O97  1  0.066724  0.906498  0.156356  1
  O  O98  1  0.405878  0.954475  0.158421  1
  O  O99  1  0.734566  0.913489  0.159639  1
