# generated using pymatgen
data_Ca3Si3(SbO6)2
_symmetry_space_group_name_H-M   'P 1'
_cell_length_a   11.03219385
_cell_length_b   11.03219417
_cell_length_c   11.03219378
_cell_angle_alpha   109.47122203
_cell_angle_beta   109.47122256
_cell_angle_gamma   109.47121810
_symmetry_Int_Tables_number   1
_chemical_formula_structural   Ca3Si3(SbO6)2
_chemical_formula_sum   'Ca12 Si12 Sb8 O48'
_cell_volume   1033.62681600
_cell_formula_units_Z   4
loop_
 _symmetry_equiv_pos_site_id
 _symmetry_equiv_pos_as_xyz
  1  'x, y, z'
loop_
 _atom_site_type_symbol
 _atom_site_label
 _atom_site_symmetry_multiplicity
 _atom_site_fract_x
 _atom_site_fract_y
 _atom_site_fract_z
 _atom_site_occupancy
  Ca  Ca0  1  0.375000  0.750000  0.125000  1
  Ca  Ca1  1  0.125000  0.250000  0.375000  1
  Ca  Ca2  1  0.375000  0.125000  0.250000  1
  Ca  Ca3  1  0.125000  0.375000  0.750000  1
  Ca  Ca4  1  0.875000  0.750000  0.625000  1
  Ca  Ca5  1  0.750000  0.125000  0.375000  1
  Ca  Ca6  1  0.750000  0.625000  0.875000  1
  Ca  Ca7  1  0.625000  0.250000  0.875000  1
  Ca  Ca8  1  0.250000  0.875000  0.625000  1
  Ca  Ca9  1  0.875000  0.625000  0.250000  1
  Ca  Ca10  1  0.625000  0.875000  0.750000  1
  Ca  Ca11  1  0.250000  0.375000  0.125000  1
  Si  Si12  1  0.250000  0.125000  0.875000  1
  Si  Si13  1  0.750000  0.875000  0.125000  1
  Si  Si14  1  0.375000  0.250000  0.625000  1
  Si  Si15  1  0.625000  0.375000  0.250000  1
  Si  Si16  1  0.125000  0.750000  0.875000  1
  Si  Si17  1  0.875000  0.125000  0.750000  1
  Si  Si18  1  0.750000  0.375000  0.625000  1
  Si  Si19  1  0.375000  0.625000  0.750000  1
  Si  Si20  1  0.125000  0.875000  0.250000  1
  Si  Si21  1  0.875000  0.250000  0.125000  1
  Si  Si22  1  0.625000  0.750000  0.375000  1
  Si  Si23  1  0.250000  0.625000  0.375000  1
  Sb  Sb24  1  0.000000  0.000000  0.000000  1
  Sb  Sb25  1  0.000000  0.500000  0.000000  1
  Sb  Sb26  1  0.000000  0.000000  0.500000  1
  Sb  Sb27  1  0.000000  0.500000  0.500000  1
  Sb  Sb28  1  0.500000  0.000000  0.500000  1
  Sb  Sb29  1  0.500000  0.500000  0.000000  1
  Sb  Sb30  1  0.500000  0.500000  0.500000  1
  Sb  Sb31  1  0.500000  0.000000  0.000000  1
  O  O32  1  0.278416  0.485476  0.374989  1
  O  O33  1  0.014524  0.292939  0.889513  1
  O  O34  1  0.125011  0.610487  0.903427  1
  O  O35  1  0.221584  0.596573  0.207061  1
  O  O36  1  0.221584  0.125011  0.014524  1
  O  O37  1  0.596573  0.207061  0.221584  1
  O  O38  1  0.610487  0.207061  0.485476  1
  O  O39  1  0.207061  0.221584  0.596573  1
  O  O40  1  0.889513  0.374989  0.596573  1
  O  O41  1  0.292939  0.903427  0.278416  1
  O  O42  1  0.903427  0.278416  0.292939  1
  O  O43  1  0.014524  0.221584  0.125011  1
  O  O44  1  0.207061  0.485476  0.610487  1
  O  O45  1  0.596573  0.889513  0.374989  1
  O  O46  1  0.125011  0.014524  0.221584  1
  O  O47  1  0.485476  0.610487  0.207061  1
  O  O48  1  0.374989  0.596573  0.889513  1
  O  O49  1  0.889513  0.014524  0.292939  1
  O  O50  1  0.610487  0.903427  0.125011  1
  O  O51  1  0.110487  0.625011  0.403427  1
  O  O52  1  0.903427  0.125011  0.610487  1
  O  O53  1  0.374989  0.278416  0.485476  1
  O  O54  1  0.292939  0.889513  0.014524  1
  O  O55  1  0.278416  0.292939  0.903427  1
  O  O56  1  0.721584  0.514524  0.625011  1
  O  O57  1  0.985476  0.707061  0.110487  1
  O  O58  1  0.874989  0.389513  0.096573  1
  O  O59  1  0.778416  0.403427  0.792939  1
  O  O60  1  0.778416  0.874989  0.985476  1
  O  O61  1  0.403427  0.792939  0.778416  1
  O  O62  1  0.389513  0.792939  0.514524  1
  O  O63  1  0.792939  0.778416  0.403427  1
  O  O64  1  0.721584  0.707061  0.096573  1
  O  O65  1  0.707061  0.110487  0.985476  1
  O  O66  1  0.625011  0.721584  0.514524  1
  O  O67  1  0.514524  0.625011  0.721584  1
  O  O68  1  0.096573  0.874989  0.389513  1
  O  O69  1  0.389513  0.096573  0.874989  1
  O  O70  1  0.110487  0.985476  0.707061  1
  O  O71  1  0.625011  0.403427  0.110487  1
  O  O72  1  0.514524  0.389513  0.792939  1
  O  O73  1  0.874989  0.985476  0.778416  1
  O  O74  1  0.403427  0.110487  0.625011  1
  O  O75  1  0.792939  0.514524  0.389513  1
  O  O76  1  0.985476  0.778416  0.874989  1
  O  O77  1  0.096573  0.721584  0.707061  1
  O  O78  1  0.707061  0.096573  0.721584  1
  O  O79  1  0.485476  0.374989  0.278416  1
