# generated using pymatgen
data_Ca2Nb2MoO8
_symmetry_space_group_name_H-M   'P 1'
_cell_length_a   5.60769716
_cell_length_b   6.33792566
_cell_length_c   10.08362605
_cell_angle_alpha   108.30260373
_cell_angle_beta   92.27310641
_cell_angle_gamma   89.98565090
_symmetry_Int_Tables_number   1
_chemical_formula_structural   Ca2Nb2MoO8
_chemical_formula_sum   'Ca4 Nb4 Mo2 O16'
_cell_volume   339.95776210
_cell_formula_units_Z   2
loop_
 _symmetry_equiv_pos_site_id
 _symmetry_equiv_pos_as_xyz
  1  'x, y, z'
loop_
 _atom_site_type_symbol
 _atom_site_label
 _atom_site_symmetry_multiplicity
 _atom_site_fract_x
 _atom_site_fract_y
 _atom_site_fract_z
 _atom_site_occupancy
  Ca  Ca0  1  0.760486  0.471518  0.584564  1
  Ca  Ca1  1  0.740171  0.886751  0.415166  1
  Ca  Ca2  1  0.240166  0.524973  0.414996  1
  Ca  Ca3  1  0.260465  0.109749  0.584290  1
  Nb  Nb4  1  0.762323  0.257072  0.225848  1
  Nb  Nb5  1  0.738465  0.031197  0.773822  1
  Nb  Nb6  1  0.238457  0.739536  0.773727  1
  Nb  Nb7  1  0.262295  0.965316  0.225735  1
  Mo  Mo8  1  0.750408  0.633987  0.999750  1
  Mo  Mo9  1  0.250519  0.362559  0.999744  1
  O  O10  1  0.095048  0.196621  0.136888  1
  O  O11  1  0.405894  0.059336  0.862747  1
  O  O12  1  0.905792  0.800061  0.862714  1
  O  O13  1  0.594962  0.937212  0.136838  1
  O  O14  1  0.595057  0.422542  0.112819  1
  O  O15  1  0.905835  0.309677  0.886673  1
  O  O16  1  0.405939  0.573916  0.886653  1
  O  O17  1  0.095127  0.686926  0.112773  1
  O  O18  1  0.492621  0.238641  0.357357  1
  O  O19  1  0.008153  0.881287  0.642143  1
  O  O20  1  0.342720  0.836952  0.374026  1
  O  O21  1  0.157964  0.462759  0.625417  1
  O  O22  1  0.657903  0.159519  0.625435  1
  O  O23  1  0.842652  0.533715  0.374133  1
  O  O24  1  0.992609  0.115244  0.357371  1
  O  O25  1  0.508101  0.757845  0.642146  1
