# generated using pymatgen
data_BaTlV2O6
_symmetry_space_group_name_H-M   'P 1'
_cell_length_a   3.45836307
_cell_length_b   3.38792697
_cell_length_c   26.95732309
_cell_angle_alpha   93.76010230
_cell_angle_beta   93.82970515
_cell_angle_gamma   90.02739499
_symmetry_Int_Tables_number   1
_chemical_formula_structural   BaTlV2O6
_chemical_formula_sum   'Ba2 Tl2 V4 O12'
_cell_volume   314.46293467
_cell_formula_units_Z   2
loop_
 _symmetry_equiv_pos_site_id
 _symmetry_equiv_pos_as_xyz
  1  'x, y, z'
loop_
 _atom_site_type_symbol
 _atom_site_label
 _atom_site_symmetry_multiplicity
 _atom_site_fract_x
 _atom_site_fract_y
 _atom_site_fract_z
 _atom_site_occupancy
  Ba  Ba0  1  0.190990  0.152613  0.327416  1
  Ba  Ba1  1  0.826759  0.838558  0.672919  1
  Tl  Tl2  1  0.737157  0.719272  0.448353  1
  Tl  Tl3  1  0.280114  0.274882  0.553072  1
  V  V4  1  0.501110  0.568651  0.084404  1
  V  V5  1  0.383217  0.404156  0.791615  1
  V  V6  1  0.630435  0.571297  0.208780  1
  V  V7  1  0.483465  0.450914  0.914797  1
  O  O8  1  0.362937  0.882416  0.753302  1
  O  O9  1  0.528354  0.083869  0.114369  1
  O  O10  1  0.242315  0.225638  0.460547  1
  O  O11  1  0.996591  0.463741  0.940944  1
  O  O12  1  0.775926  0.770115  0.543943  1
  O  O13  1  0.117782  0.584331  0.185702  1
  O  O14  1  0.651725  0.099220  0.247181  1
  O  O15  1  0.309181  0.319437  0.636597  1
  O  O16  1  0.895679  0.412757  0.814779  1
  O  O17  1  0.988682  0.555190  0.058303  1
  O  O18  1  0.460579  0.935331  0.884604  1
  O  O19  1  0.709135  0.672910  0.364151  1
