# generated using pymatgen
data_Ca2CoSi2O7
_symmetry_space_group_name_H-M   'P 1'
_cell_length_a   5.05707710
_cell_length_b   7.91485481
_cell_length_c   7.91485782
_cell_angle_alpha   90.00001455
_cell_angle_beta   90.00001133
_cell_angle_gamma   90.00000000
_symmetry_Int_Tables_number   1
_chemical_formula_structural   Ca2CoSi2O7
_chemical_formula_sum   'Ca4 Co2 Si4 O14'
_cell_volume   316.80034454
_cell_formula_units_Z   2
loop_
 _symmetry_equiv_pos_site_id
 _symmetry_equiv_pos_as_xyz
  1  'x, y, z'
loop_
 _atom_site_type_symbol
 _atom_site_label
 _atom_site_symmetry_multiplicity
 _atom_site_fract_x
 _atom_site_fract_y
 _atom_site_fract_z
 _atom_site_occupancy
  Ca  Ca0  1  0.496844  0.830597  0.330597  1
  Ca  Ca1  1  0.496844  0.169403  0.669403  1
  Ca  Ca2  1  0.503156  0.330597  0.169403  1
  Ca  Ca3  1  0.503156  0.669403  0.830597  1
  Co  Co4  1  0.000000  0.000000  0.000000  1
  Co  Co5  1  0.000000  0.500000  0.500000  1
  Si  Si6  1  0.934197  0.140593  0.359407  1
  Si  Si7  1  0.934197  0.859407  0.640593  1
  Si  Si8  1  0.065803  0.359407  0.859407  1
  Si  Si9  1  0.065804  0.640593  0.140593  1
  O  O10  1  0.253311  0.858005  0.641995  1
  O  O11  1  0.779403  0.313799  0.417413  1
  O  O12  1  0.779403  0.686201  0.582587  1
  O  O13  1  0.746688  0.358005  0.858005  1
  O  O14  1  0.220597  0.417413  0.686201  1
  O  O15  1  0.220597  0.813799  0.082587  1
  O  O16  1  0.779403  0.917414  0.813799  1
  O  O17  1  0.816787  0.000000  0.500000  1
  O  O18  1  0.183213  0.500000  0.000000  1
  O  O19  1  0.220597  0.582587  0.313799  1
  O  O20  1  0.220597  0.186201  0.917413  1
  O  O21  1  0.746688  0.641995  0.141995  1
  O  O22  1  0.253311  0.141995  0.358005  1
  O  O23  1  0.779403  0.082587  0.186201  1
