# generated using pymatgen
data_CaCuP2O7
_symmetry_space_group_name_H-M   'P 1'
_cell_length_a   6.48212494
_cell_length_b   6.57429828
_cell_length_c   6.71186601
_cell_angle_alpha   66.33190110
_cell_angle_beta   87.35153788
_cell_angle_gamma   82.55173838
_symmetry_Int_Tables_number   1
_chemical_formula_structural   CaCuP2O7
_chemical_formula_sum   'Ca2 Cu2 P4 O14'
_cell_volume   259.75426201
_cell_formula_units_Z   2
loop_
 _symmetry_equiv_pos_site_id
 _symmetry_equiv_pos_as_xyz
  1  'x, y, z'
loop_
 _atom_site_type_symbol
 _atom_site_label
 _atom_site_symmetry_multiplicity
 _atom_site_fract_x
 _atom_site_fract_y
 _atom_site_fract_z
 _atom_site_occupancy
  Ca  Ca0  1  0.857187  0.270906  0.174104  1
  Ca  Ca1  1  0.142813  0.729094  0.825896  1
  Cu  Cu2  1  0.647950  0.100547  0.775198  1
  Cu  Cu3  1  0.352050  0.899453  0.224802  1
  P  P4  1  0.143281  0.228697  0.751624  1
  P  P5  1  0.856719  0.771303  0.248376  1
  P  P6  1  0.626746  0.642553  0.667600  1
  P  P7  1  0.373254  0.357447  0.332400  1
  O  O8  1  0.777791  0.609998  0.479755  1
  O  O9  1  0.222209  0.390002  0.520245  1
  O  O10  1  0.973533  0.100550  0.720473  1
  O  O11  1  0.026467  0.899450  0.279527  1
  O  O12  1  0.589518  0.254166  0.437339  1
  O  O13  1  0.410482  0.745834  0.562661  1
  O  O14  1  0.374762  0.598588  0.161401  1
  O  O15  1  0.625238  0.401412  0.838598  1
  O  O16  1  0.932078  0.616069  0.137448  1
  O  O17  1  0.067922  0.383931  0.862552  1
  O  O18  1  0.669310  0.949968  0.133321  1
  O  O19  1  0.330690  0.050032  0.866679  1
  O  O20  1  0.272683  0.206151  0.253288  1
  O  O21  1  0.727317  0.793849  0.746712  1
