# generated using pymatgen
data_Mg(CoO2)2
_symmetry_space_group_name_H-M   'P 1'
_cell_length_a   6.02702722
_cell_length_b   5.89592223
_cell_length_c   5.89598045
_cell_angle_alpha   90.01208128
_cell_angle_beta   119.27511668
_cell_angle_gamma   119.27570659
_symmetry_Int_Tables_number   1
_chemical_formula_structural   Mg(CoO2)2
_chemical_formula_sum   'Mg2 Co4 O8'
_cell_volume   151.32018245
_cell_formula_units_Z   2
loop_
 _symmetry_equiv_pos_site_id
 _symmetry_equiv_pos_as_xyz
  1  'x, y, z'
loop_
 _atom_site_type_symbol
 _atom_site_label
 _atom_site_symmetry_multiplicity
 _atom_site_fract_x
 _atom_site_fract_y
 _atom_site_fract_z
 _atom_site_occupancy
  Mg  Mg0  1  0.250021  0.125007  0.875026  1
  Mg  Mg1  1  0.749973  0.874995  0.124973  1
  Co  Co2  1  0.499998  0.999997  0.499998  1
  Co  Co3  1  0.500000  0.499999  0.500001  1
  Co  Co4  1  0.000002  0.500002  0.000001  1
  Co  Co5  1  0.000000  0.500000  0.499999  1
  O  O6  1  0.024081  0.743436  0.247421  1
  O  O7  1  0.475908  0.752673  0.719348  1
  O  O8  1  0.475917  0.723241  0.256564  1
  O  O9  1  0.975913  0.719359  0.723342  1
  O  O10  1  0.524082  0.276753  0.743433  1
  O  O11  1  0.524096  0.247329  0.280654  1
  O  O12  1  0.024090  0.280647  0.276660  1
  O  O13  1  0.975920  0.256566  0.752578  1
