# generated using pymatgen
data_V4ZnS8
_symmetry_space_group_name_H-M   'P 1'
_cell_length_a   7.46767071
_cell_length_b   7.46767043
_cell_length_c   7.46767158
_cell_angle_alpha   50.88476634
_cell_angle_beta   50.88476189
_cell_angle_gamma   50.88476727
_symmetry_Int_Tables_number   1
_chemical_formula_structural   V4ZnS8
_chemical_formula_sum   'V4 Zn1 S8'
_cell_volume   231.17679991
_cell_formula_units_Z   1
loop_
 _symmetry_equiv_pos_site_id
 _symmetry_equiv_pos_as_xyz
  1  'x, y, z'
loop_
 _atom_site_type_symbol
 _atom_site_label
 _atom_site_symmetry_multiplicity
 _atom_site_fract_x
 _atom_site_fract_y
 _atom_site_fract_z
 _atom_site_occupancy
  V  V0  1  0.500001  0.999999  0.500001  1
  V  V1  1  0.999999  0.500000  0.500001  1
  V  V2  1  0.500000  0.500000  0.000000  1
  V  V3  1  0.000000  0.000000  0.000000  1
  Zn  Zn4  1  0.500000  0.500001  0.499999  1
  S  S5  1  0.754767  0.261297  0.754767  1
  S  S6  1  0.245232  0.245233  0.738703  1
  S  S7  1  0.245232  0.738704  0.245232  1
  S  S8  1  0.738702  0.245233  0.245233  1
  S  S9  1  0.258206  0.258207  0.258206  1
  S  S10  1  0.741794  0.741794  0.741794  1
  S  S11  1  0.261298  0.754768  0.754767  1
  S  S12  1  0.754768  0.754768  0.261297  1
