# generated using pymatgen
data_ZnCu(SiO3)2
_symmetry_space_group_name_H-M   'P 1'
_cell_length_a   5.34796130
_cell_length_b   9.11112351
_cell_length_c   18.56801029
_cell_angle_alpha   90.00000000
_cell_angle_beta   90.00000000
_cell_angle_gamma   90.00000000
_symmetry_Int_Tables_number   1
_chemical_formula_structural   ZnCu(SiO3)2
_chemical_formula_sum   'Zn8 Cu8 Si16 O48'
_cell_volume   904.74367976
_cell_formula_units_Z   8
loop_
 _symmetry_equiv_pos_site_id
 _symmetry_equiv_pos_as_xyz
  1  'x, y, z'
loop_
 _atom_site_type_symbol
 _atom_site_label
 _atom_site_symmetry_multiplicity
 _atom_site_fract_x
 _atom_site_fract_y
 _atom_site_fract_z
 _atom_site_occupancy
  Zn  Zn0  1  0.591579  0.147892  0.625915  1
  Zn  Zn1  1  0.408421  0.852108  0.374085  1
  Zn  Zn2  1  0.591579  0.647892  0.874085  1
  Zn  Zn3  1  0.091579  0.852108  0.874085  1
  Zn  Zn4  1  0.908421  0.147892  0.125915  1
  Zn  Zn5  1  0.408421  0.352108  0.125915  1
  Zn  Zn6  1  0.091579  0.352108  0.625915  1
  Zn  Zn7  1  0.908421  0.647892  0.374085  1
  Cu  Cu8  1  0.403514  0.995552  0.124731  1
  Cu  Cu9  1  0.596486  0.004448  0.875269  1
  Cu  Cu10  1  0.903514  0.004448  0.375269  1
  Cu  Cu11  1  0.096486  0.995552  0.624731  1
  Cu  Cu12  1  0.403514  0.495552  0.375269  1
  Cu  Cu13  1  0.596486  0.504448  0.624731  1
  Cu  Cu14  1  0.903514  0.504448  0.124731  1
  Cu  Cu15  1  0.096486  0.495552  0.875269  1
  Si  Si16  1  0.600761  0.663766  0.225310  1
  Si  Si17  1  0.735822  0.837616  0.524117  1
  Si  Si18  1  0.764178  0.837616  0.024117  1
  Si  Si19  1  0.899239  0.163766  0.774690  1
  Si  Si20  1  0.100761  0.336234  0.274690  1
  Si  Si21  1  0.399239  0.836234  0.725310  1
  Si  Si22  1  0.235822  0.662384  0.524117  1
  Si  Si23  1  0.735822  0.337616  0.975883  1
  Si  Si24  1  0.764178  0.337616  0.475883  1
  Si  Si25  1  0.899239  0.663766  0.725310  1
  Si  Si26  1  0.399239  0.336234  0.774690  1
  Si  Si27  1  0.600761  0.163766  0.274690  1
  Si  Si28  1  0.264178  0.162384  0.475883  1
  Si  Si29  1  0.100761  0.836234  0.225310  1
  Si  Si30  1  0.264178  0.662384  0.024117  1
  Si  Si31  1  0.235822  0.162384  0.975883  1
  O  O32  1  0.885495  0.502683  0.687141  1
  O  O33  1  0.298406  0.010754  0.932654  1
  O  O34  1  0.114505  0.497317  0.312859  1
  O  O35  1  0.730412  0.345955  0.064648  1
  O  O36  1  0.230412  0.154045  0.064648  1
  O  O37  1  0.955002  0.219429  0.951761  1
  O  O38  1  0.906308  0.665458  0.813117  1
  O  O39  1  0.093692  0.834542  0.313117  1
  O  O40  1  0.730412  0.845955  0.435352  1
  O  O41  1  0.906308  0.165458  0.686883  1
  O  O42  1  0.385495  0.497317  0.812859  1
  O  O43  1  0.769588  0.345955  0.564648  1
  O  O44  1  0.701594  0.989246  0.067346  1
  O  O45  1  0.406308  0.834542  0.813117  1
  O  O46  1  0.614505  0.002683  0.312859  1
  O  O47  1  0.298406  0.510754  0.567346  1
  O  O48  1  0.385495  0.997317  0.687141  1
  O  O49  1  0.138645  0.759686  0.694757  1
  O  O50  1  0.361355  0.759686  0.194757  1
  O  O51  1  0.544998  0.719429  0.048239  1
  O  O52  1  0.769588  0.845955  0.935352  1
  O  O53  1  0.593692  0.665458  0.313117  1
  O  O54  1  0.798406  0.489246  0.932654  1
  O  O55  1  0.138645  0.259686  0.805243  1
  O  O56  1  0.269588  0.154045  0.564648  1
  O  O57  1  0.593692  0.165458  0.186883  1
  O  O58  1  0.701594  0.489246  0.432654  1
  O  O59  1  0.230412  0.654045  0.435352  1
  O  O60  1  0.201594  0.510754  0.067346  1
  O  O61  1  0.638645  0.740314  0.694757  1
  O  O62  1  0.114505  0.997317  0.187141  1
  O  O63  1  0.861355  0.740314  0.194757  1
  O  O64  1  0.861355  0.240314  0.305243  1
  O  O65  1  0.798406  0.989246  0.567346  1
  O  O66  1  0.269588  0.654045  0.935352  1
  O  O67  1  0.201594  0.010754  0.432654  1
  O  O68  1  0.361355  0.259686  0.305243  1
  O  O69  1  0.044998  0.780571  0.048239  1
  O  O70  1  0.455002  0.780571  0.548239  1
  O  O71  1  0.638645  0.240314  0.805243  1
  O  O72  1  0.455002  0.280571  0.951761  1
  O  O73  1  0.544998  0.219429  0.451761  1
  O  O74  1  0.044998  0.280571  0.451761  1
  O  O75  1  0.406308  0.334542  0.686883  1
  O  O76  1  0.614505  0.502683  0.187141  1
  O  O77  1  0.955002  0.719429  0.548239  1
  O  O78  1  0.093692  0.334542  0.186883  1
  O  O79  1  0.885495  0.002683  0.812859  1
