# generated using pymatgen
data_V4ZnO8
_symmetry_space_group_name_H-M   'P 1'
_cell_length_a   3.01745034
_cell_length_b   7.37313118
_cell_length_c   7.47875527
_cell_angle_alpha   79.91611364
_cell_angle_beta   78.36506140
_cell_angle_gamma   78.20118190
_symmetry_Int_Tables_number   1
_chemical_formula_structural   V4ZnO8
_chemical_formula_sum   'V4 Zn1 O8'
_cell_volume   157.96334153
_cell_formula_units_Z   1
loop_
 _symmetry_equiv_pos_site_id
 _symmetry_equiv_pos_as_xyz
  1  'x, y, z'
loop_
 _atom_site_type_symbol
 _atom_site_label
 _atom_site_symmetry_multiplicity
 _atom_site_fract_x
 _atom_site_fract_y
 _atom_site_fract_z
 _atom_site_occupancy
  V  V0  1  0.633248  0.177798  0.567759  1
  V  V1  1  0.148851  0.512683  0.201721  1
  V  V2  1  0.846433  0.484913  0.834225  1
  V  V3  1  0.357318  0.803856  0.493328  1
  Zn  Zn4  1  0.340660  0.132358  0.198000  1
  O  O5  1  0.861718  0.668517  0.620168  1
  O  O6  1  0.470980  0.324531  0.745400  1
  O  O7  1  0.542630  0.639267  0.287744  1
  O  O8  1  0.145662  0.308362  0.412423  1
  O  O9  1  0.175812  0.015654  0.644620  1
  O  O10  1  0.793089  0.327817  0.097966  1
  O  O11  1  0.840845  0.985819  0.344158  1
  O  O12  1  0.220917  0.609062  0.961279  1
