# generated using pymatgen
data_Ba2TlNi2O7
_symmetry_space_group_name_H-M   'P 1'
_cell_length_a   3.67991748
_cell_length_b   3.68746926
_cell_length_c   13.65446808
_cell_angle_alpha   90.00003712
_cell_angle_beta   89.98549153
_cell_angle_gamma   90.00007421
_symmetry_Int_Tables_number   1
_chemical_formula_structural   Ba2TlNi2O7
_chemical_formula_sum   'Ba2 Tl1 Ni2 O7'
_cell_volume   185.28542632
_cell_formula_units_Z   1
loop_
 _symmetry_equiv_pos_site_id
 _symmetry_equiv_pos_as_xyz
  1  'x, y, z'
loop_
 _atom_site_type_symbol
 _atom_site_label
 _atom_site_symmetry_multiplicity
 _atom_site_fract_x
 _atom_site_fract_y
 _atom_site_fract_z
 _atom_site_occupancy
  Ba  Ba0  1  0.000030  1.000000  0.711393  1
  Ba  Ba1  1  0.000079  0.000001  0.289053  1
  Tl  Tl2  1  0.500010  0.500002  0.499941  1
  Ni  Ni3  1  0.499773  0.500000  0.891241  1
  Ni  Ni4  1  0.499036  0.500000  0.107902  1
  O  O5  1  0.000052  0.999998  0.500013  1
  O  O6  1  0.499875  0.000000  0.870413  1
  O  O7  1  0.000281  0.500000  0.870368  1
  O  O8  1  0.499777  1.000000  0.129696  1
  O  O9  1  0.000957  0.500001  0.130024  1
  O  O10  1  0.500034  0.499999  0.652281  1
  O  O11  1  0.500092  0.500001  0.347641  1
