# generated using pymatgen
data_Y2W2O7
_symmetry_space_group_name_H-M   'P 1'
_cell_length_a   7.49035501
_cell_length_b   7.48941060
_cell_length_c   7.43383370
_cell_angle_alpha   58.86274265
_cell_angle_beta   58.85997043
_cell_angle_gamma   59.18136214
_symmetry_Int_Tables_number   1
_chemical_formula_structural   Y2W2O7
_chemical_formula_sum   'Y4 W4 O14'
_cell_volume   287.93278923
_cell_formula_units_Z   2
loop_
 _symmetry_equiv_pos_site_id
 _symmetry_equiv_pos_as_xyz
  1  'x, y, z'
loop_
 _atom_site_type_symbol
 _atom_site_label
 _atom_site_symmetry_multiplicity
 _atom_site_fract_x
 _atom_site_fract_y
 _atom_site_fract_z
 _atom_site_occupancy
  Y  Y0  1  0.500000  1.000000  0.500000  1
  Y  Y1  1  1.000000  0.500000  0.500000  1
  Y  Y2  1  0.500000  0.500000  0.000000  1
  Y  Y3  1  0.500000  0.500000  0.500000  1
  W  W4  1  0.000000  0.500000  1.000000  1
  W  W5  1  0.500000  -0.000000  0.000000  1
  W  W6  1  0.000000  -0.000000  0.500000  1
  W  W7  1  -0.000000  0.000000  0.000000  1
  O  O8  1  0.624964  0.624877  0.626754  1
  O  O9  1  0.375035  0.375123  0.373246  1
  O  O10  1  0.327797  0.912153  0.921406  1
  O  O11  1  0.092961  0.644368  0.657782  1
  O  O12  1  0.912007  0.327863  0.921567  1
  O  O13  1  0.910575  0.910280  0.331124  1
  O  O14  1  0.338766  0.338703  0.928972  1
  O  O15  1  0.355638  0.907328  0.342259  1
  O  O16  1  0.907039  0.355631  0.342219  1
  O  O17  1  0.661234  0.661298  0.071028  1
  O  O18  1  0.089426  0.089721  0.668875  1
  O  O19  1  0.672203  0.087847  0.078594  1
  O  O20  1  0.644362  0.092672  0.657741  1
  O  O21  1  0.087993  0.672137  0.078433  1
