# generated using pymatgen
data_Al14(CuSe8)3
_symmetry_space_group_name_H-M   'P 1'
_cell_length_a   7.46974553
_cell_length_b   7.46974573
_cell_length_c   22.50405880
_cell_angle_alpha   60.34383795
_cell_angle_beta   60.34383564
_cell_angle_gamma   60.28430944
_symmetry_Int_Tables_number   1
_chemical_formula_structural   Al14(CuSe8)3
_chemical_formula_sum   'Al14 Cu3 Se24'
_cell_volume   894.39466907
_cell_formula_units_Z   1
loop_
 _symmetry_equiv_pos_site_id
 _symmetry_equiv_pos_as_xyz
  1  'x, y, z'
loop_
 _atom_site_type_symbol
 _atom_site_label
 _atom_site_symmetry_multiplicity
 _atom_site_fract_x
 _atom_site_fract_y
 _atom_site_fract_z
 _atom_site_occupancy
  Al  Al0  1  0.243958  0.243958  0.083992  1
  Al  Al1  1  0.250288  0.250288  0.414428  1
  Al  Al2  1  0.250076  0.250076  0.749674  1
  Al  Al3  1  0.109667  0.630700  0.209524  1
  Al  Al4  1  0.107293  0.631016  0.543591  1
  Al  Al5  1  0.106329  0.630723  0.877422  1
  Al  Al6  1  0.629842  0.629842  0.038662  1
  Al  Al7  1  0.630391  0.630391  0.367956  1
  Al  Al8  1  0.631527  0.631527  0.701802  1
  Al  Al9  1  0.630700  0.109667  0.209524  1
  Al  Al10  1  0.631016  0.107293  0.543591  1
  Al  Al11  1  0.630723  0.106329  0.877422  1
  Al  Al12  1  0.630925  0.630925  0.543629  1
  Al  Al13  1  0.630696  0.630696  0.877514  1
  Cu  Cu14  1  0.998625  0.998625  0.001666  1
  Cu  Cu15  1  0.003311  0.003311  0.332490  1
  Cu  Cu16  1  0.000006  0.000006  0.666828  1
  Se  Se17  1  0.383400  0.383400  0.127677  1
  Se  Se18  1  0.383086  0.383086  0.461706  1
  Se  Se19  1  0.383920  0.383920  0.794403  1
  Se  Se20  1  0.384061  0.850621  0.127595  1
  Se  Se21  1  0.384178  0.846543  0.462163  1
  Se  Se22  1  0.383981  0.849220  0.794265  1
  Se  Se23  1  0.382849  0.382849  0.284258  1
  Se  Se24  1  0.383139  0.383139  0.616774  1
  Se  Se25  1  0.385465  0.385465  0.948373  1
  Se  Se26  1  0.850621  0.384061  0.127595  1
  Se  Se27  1  0.846543  0.384178  0.462163  1
  Se  Se28  1  0.849220  0.383981  0.794265  1
  Se  Se29  1  0.393879  0.868984  0.289299  1
  Se  Se30  1  0.393561  0.868749  0.622938  1
  Se  Se31  1  0.394209  0.867525  0.956293  1
  Se  Se32  1  0.870661  0.870661  0.130293  1
  Se  Se33  1  0.868408  0.868408  0.464551  1
  Se  Se34  1  0.868950  0.868950  0.797758  1
  Se  Se35  1  0.868984  0.393879  0.289299  1
  Se  Se36  1  0.868749  0.393561  0.622938  1
  Se  Se37  1  0.867525  0.394209  0.956293  1
  Se  Se38  1  0.868280  0.868280  0.290150  1
  Se  Se39  1  0.868964  0.868964  0.622811  1
  Se  Se40  1  0.869889  0.869889  0.955724  1
