# generated using pymatgen
data_CaSn3(P2O7)2
_symmetry_space_group_name_H-M   'P 1'
_cell_length_a   8.34486494
_cell_length_b   8.31367146
_cell_length_c   10.11145669
_cell_angle_alpha   90.00000000
_cell_angle_beta   108.31155807
_cell_angle_gamma   90.00000000
_symmetry_Int_Tables_number   1
_chemical_formula_structural   CaSn3(P2O7)2
_chemical_formula_sum   'Ca2 Sn6 P8 O28'
_cell_volume   665.97479691
_cell_formula_units_Z   2
loop_
 _symmetry_equiv_pos_site_id
 _symmetry_equiv_pos_as_xyz
  1  'x, y, z'
loop_
 _atom_site_type_symbol
 _atom_site_label
 _atom_site_symmetry_multiplicity
 _atom_site_fract_x
 _atom_site_fract_y
 _atom_site_fract_z
 _atom_site_occupancy
  Ca  Ca0  1  0.500000  0.000000  -0.000000  1
  Ca  Ca1  1  0.500000  0.500000  0.500000  1
  Sn  Sn2  1  0.203381  0.881301  0.537369  1
  Sn  Sn3  1  0.796619  0.381301  0.962631  1
  Sn  Sn4  1  0.796619  0.118699  0.462631  1
  Sn  Sn5  1  0.203381  0.618699  0.037369  1
  Sn  Sn6  1  -0.000000  0.000000  -0.000000  1
  Sn  Sn7  1  -0.000000  0.500000  0.500000  1
  P  P8  1  0.590463  0.051851  0.707641  1
  P  P9  1  0.409537  0.551851  0.792359  1
  P  P10  1  0.409537  0.948149  0.292359  1
  P  P11  1  0.590463  0.448149  0.207641  1
  P  P12  1  0.824512  0.794648  0.675235  1
  P  P13  1  0.175488  0.294648  0.824765  1
  P  P14  1  0.175488  0.205352  0.324765  1
  P  P15  1  0.824512  0.705352  0.175235  1
  O  O16  1  0.775414  0.634058  0.598830  1
  O  O17  1  0.224586  0.134058  0.901170  1
  O  O18  1  0.224586  0.365942  0.401170  1
  O  O19  1  0.775414  0.865942  0.098830  1
  O  O20  1  0.320826  0.573891  0.634359  1
  O  O21  1  0.679174  0.073891  0.865641  1
  O  O22  1  0.679174  0.426109  0.365641  1
  O  O23  1  0.320826  0.926109  0.134359  1
  O  O24  1  0.639052  0.177210  0.614723  1
  O  O25  1  0.360948  0.677210  0.885277  1
  O  O26  1  0.360948  0.822790  0.385277  1
  O  O27  1  0.639052  0.322790  0.114723  1
  O  O28  1  0.642619  0.874943  0.666200  1
  O  O29  1  0.357381  0.374943  0.833800  1
  O  O30  1  0.357381  0.125057  0.333800  1
  O  O31  1  0.642619  0.625057  0.166200  1
  O  O32  1  0.400795  0.464683  0.184243  1
  O  O33  1  0.599205  0.964683  0.315757  1
  O  O34  1  0.599205  0.535317  0.815757  1
  O  O35  1  0.400795  0.035317  0.684243  1
  O  O36  1  0.066944  0.216623  0.172923  1
  O  O37  1  0.933056  0.716623  0.327077  1
  O  O38  1  0.933056  0.783377  0.827077  1
  O  O39  1  0.066944  0.283377  0.672923  1
  O  O40  1  0.903947  0.585125  0.095813  1
  O  O41  1  0.096053  0.085125  0.404187  1
  O  O42  1  0.096053  0.414875  0.904187  1
  O  O43  1  0.903947  0.914875  0.595813  1
