# generated using pymatgen
data_Zn(FeO2)2
_symmetry_space_group_name_H-M   'P 1'
_cell_length_a   2.92110983
_cell_length_b   9.05179813
_cell_length_c   10.41372272
_cell_angle_alpha   91.67294317
_cell_angle_beta   90.00386213
_cell_angle_gamma   90.00464692
_symmetry_Int_Tables_number   1
_chemical_formula_structural   Zn(FeO2)2
_chemical_formula_sum   'Zn4 Fe8 O16'
_cell_volume   275.23496218
_cell_formula_units_Z   4
loop_
 _symmetry_equiv_pos_site_id
 _symmetry_equiv_pos_as_xyz
  1  'x, y, z'
loop_
 _atom_site_type_symbol
 _atom_site_label
 _atom_site_symmetry_multiplicity
 _atom_site_fract_x
 _atom_site_fract_y
 _atom_site_fract_z
 _atom_site_occupancy
  Zn  Zn0  1  0.749994  0.245287  0.354106  1
  Zn  Zn1  1  0.250022  0.756928  0.652527  1
  Zn  Zn2  1  0.749890  0.750897  0.152348  1
  Zn  Zn3  1  0.249937  0.245770  0.844529  1
  Fe  Fe4  1  0.249993  0.409751  0.101464  1
  Fe  Fe5  1  0.749932  0.084320  0.601554  1
  Fe  Fe6  1  0.249937  0.913150  0.401216  1
  Fe  Fe7  1  0.749945  0.593364  0.896862  1
  Fe  Fe8  1  0.750120  0.567748  0.383042  1
  Fe  Fe9  1  0.249994  0.434660  0.618135  1
  Fe  Fe10  1  0.750105  0.058529  0.120510  1
  Fe  Fe11  1  0.250009  0.942392  0.878084  1
  O  O12  1  0.250066  0.908985  0.065286  1
  O  O13  1  0.750089  0.081103  0.928324  1
  O  O14  1  0.250049  0.405778  0.426475  1
  O  O15  1  0.750030  0.594429  0.572876  1
  O  O16  1  0.249993  0.040007  0.714945  1
  O  O17  1  0.750036  0.954807  0.286320  1
  O  O18  1  0.249925  0.538414  0.782324  1
  O  O19  1  0.750039  0.474315  0.212836  1
  O  O20  1  0.249950  0.623600  0.033528  1
  O  O21  1  0.749889  0.371254  0.962018  1
  O  O22  1  0.249536  0.115616  0.469608  1
  O  O23  1  0.750088  0.883082  0.532486  1
  O  O24  1  0.749929  0.802930  0.822314  1
  O  O25  1  0.250116  0.202716  0.182408  1
  O  O26  1  0.250390  0.709781  0.331138  1
  O  O27  1  0.749984  0.290384  0.672737  1
