# generated using pymatgen
data_BaMgAgF7
_symmetry_space_group_name_H-M   'P 1'
_cell_length_a   5.76187788
_cell_length_b   9.90964221
_cell_length_c   10.18911712
_cell_angle_alpha   90.00000000
_cell_angle_beta   90.00000000
_cell_angle_gamma   93.12509511
_symmetry_Int_Tables_number   1
_chemical_formula_structural   BaMgAgF7
_chemical_formula_sum   'Ba4 Mg4 Ag4 F28'
_cell_volume   580.91454889
_cell_formula_units_Z   4
loop_
 _symmetry_equiv_pos_site_id
 _symmetry_equiv_pos_as_xyz
  1  'x, y, z'
loop_
 _atom_site_type_symbol
 _atom_site_label
 _atom_site_symmetry_multiplicity
 _atom_site_fract_x
 _atom_site_fract_y
 _atom_site_fract_z
 _atom_site_occupancy
  Ba  Ba0  1  0.272121  0.497897  0.323823  1
  Ba  Ba1  1  0.727879  0.002103  0.823823  1
  Ba  Ba2  1  0.727879  0.502103  0.676177  1
  Ba  Ba3  1  0.272121  0.997897  0.176177  1
  Mg  Mg4  1  0.692828  0.808088  0.394278  1
  Mg  Mg5  1  0.307172  0.691912  0.894278  1
  Mg  Mg6  1  0.692828  0.308088  0.105722  1
  Mg  Mg7  1  0.307172  0.191912  0.605722  1
  Ag  Ag8  1  0.192646  0.815038  0.610545  1
  Ag  Ag9  1  0.807354  0.184962  0.389455  1
  Ag  Ag10  1  0.192646  0.315038  0.889455  1
  Ag  Ag11  1  0.807354  0.684962  0.110545  1
  F  F12  1  0.136925  0.122082  0.448383  1
  F  F13  1  0.376147  0.375347  0.060916  1
  F  F14  1  0.483817  0.749763  0.720690  1
  F  F15  1  0.516183  0.250237  0.279310  1
  F  F16  1  0.898861  0.377883  0.459924  1
  F  F17  1  0.260152  0.509286  0.802671  1
  F  F18  1  0.022490  0.749267  0.788245  1
  F  F19  1  0.101139  0.122117  0.959924  1
  F  F20  1  0.376147  0.875347  0.439084  1
  F  F21  1  0.516183  0.750237  0.220690  1
  F  F22  1  0.136925  0.622082  0.051617  1
  F  F23  1  0.863075  0.877918  0.551617  1
  F  F24  1  0.977510  0.750733  0.288245  1
  F  F25  1  0.394542  0.869247  0.961293  1
  F  F26  1  0.101139  0.622117  0.540076  1
  F  F27  1  0.898861  0.877883  0.040076  1
  F  F28  1  0.977510  0.250733  0.211755  1
  F  F29  1  0.863075  0.377918  0.948383  1
  F  F30  1  0.605458  0.630753  0.461293  1
  F  F31  1  0.623853  0.624653  0.939084  1
  F  F32  1  0.605458  0.130753  0.038707  1
  F  F33  1  0.022490  0.249267  0.711755  1
  F  F34  1  0.394542  0.369247  0.538707  1
  F  F35  1  0.739848  0.990714  0.302671  1
  F  F36  1  0.739848  0.490714  0.197329  1
  F  F37  1  0.260152  0.009286  0.697329  1
  F  F38  1  0.623853  0.124653  0.560916  1
  F  F39  1  0.483817  0.249763  0.779310  1
