# generated using pymatgen
data_Zn2Co3O8
_symmetry_space_group_name_H-M   'P 1'
_cell_length_a   4.82265257
_cell_length_b   5.66543571
_cell_length_c   5.81041014
_cell_angle_alpha   119.17801118
_cell_angle_beta   107.26691451
_cell_angle_gamma   89.99999725
_symmetry_Int_Tables_number   1
_chemical_formula_structural   Zn2Co3O8
_chemical_formula_sum   'Zn2 Co3 O8'
_cell_volume   130.35433285
_cell_formula_units_Z   1
loop_
 _symmetry_equiv_pos_site_id
 _symmetry_equiv_pos_as_xyz
  1  'x, y, z'
loop_
 _atom_site_type_symbol
 _atom_site_label
 _atom_site_symmetry_multiplicity
 _atom_site_fract_x
 _atom_site_fract_y
 _atom_site_fract_z
 _atom_site_occupancy
  Zn  Zn0  1  0.656943  0.718392  0.436784  1
  Zn  Zn1  1  0.343056  0.281609  0.563216  1
  Co  Co2  1  0.500000  0.999999  0.000000  1
  Co  Co3  1  0.999999  0.743687  1.000000  1
  Co  Co4  1  0.999999  0.256313  0.000000  1
  O  O5  1  0.067996  0.396462  0.792924  1
  O  O6  1  0.932004  0.603537  0.207076  1
  O  O7  1  0.085257  0.896174  0.792348  1
  O  O8  1  0.914743  0.103825  0.207651  1
  O  O9  1  0.399955  0.336297  0.222542  1
  O  O10  1  0.399955  0.886245  0.222542  1
  O  O11  1  0.600046  0.113754  0.777458  1
  O  O12  1  0.600046  0.663703  0.777458  1
