# generated using pymatgen
data_Ba(SnO2)4
_symmetry_space_group_name_H-M   'P 1'
_cell_length_a   6.08554576
_cell_length_b   6.08554589
_cell_length_c   7.66308198
_cell_angle_alpha   90.00000000
_cell_angle_beta   90.00000000
_cell_angle_gamma   119.99999435
_symmetry_Int_Tables_number   1
_chemical_formula_structural   Ba(SnO2)4
_chemical_formula_sum   'Ba1 Sn4 O8'
_cell_volume   245.77245211
_cell_formula_units_Z   1
loop_
 _symmetry_equiv_pos_site_id
 _symmetry_equiv_pos_as_xyz
  1  'x, y, z'
loop_
 _atom_site_type_symbol
 _atom_site_label
 _atom_site_symmetry_multiplicity
 _atom_site_fract_x
 _atom_site_fract_y
 _atom_site_fract_z
 _atom_site_occupancy
  Ba  Ba0  1  0.000000  0.000000  0.000000  1
  Sn  Sn1  1  0.333333  0.666667  0.740196  1
  Sn  Sn2  1  0.666667  0.333333  0.740196  1
  Sn  Sn3  1  0.333333  0.666667  0.259804  1
  Sn  Sn4  1  0.666667  0.333333  0.259804  1
  O  O5  1  0.336897  0.336897  0.712143  1
  O  O6  1  0.663103  0.000000  0.712143  1
  O  O7  1  0.000000  0.663103  0.712143  1
  O  O8  1  0.663103  0.663103  0.287857  1
  O  O9  1  1.000000  0.336897  0.287857  1
  O  O10  1  0.336897  1.000000  0.287857  1
  O  O11  1  0.333333  0.666667  -0.000000  1
  O  O12  1  0.666667  0.333333  0.000000  1
