# generated using pymatgen
data_Y(MnS2)2
_symmetry_space_group_name_H-M   'P 1'
_cell_length_a   7.73141425
_cell_length_b   7.45299107
_cell_length_c   7.47398760
_cell_angle_alpha   89.28297670
_cell_angle_beta   121.11727103
_cell_angle_gamma   121.32612879
_symmetry_Int_Tables_number   1
_chemical_formula_structural   Y(MnS2)2
_chemical_formula_sum   'Y2 Mn4 S8'
_cell_volume   294.99599656
_cell_formula_units_Z   2
loop_
 _symmetry_equiv_pos_site_id
 _symmetry_equiv_pos_as_xyz
  1  'x, y, z'
loop_
 _atom_site_type_symbol
 _atom_site_label
 _atom_site_symmetry_multiplicity
 _atom_site_fract_x
 _atom_site_fract_y
 _atom_site_fract_z
 _atom_site_occupancy
  Y  Y0  1  0.999989  0.999964  0.000011  1
  Y  Y1  1  0.500024  0.000022  -0.000011  1
  Mn  Mn2  1  0.499970  0.000047  0.499993  1
  Mn  Mn3  1  0.500076  0.500063  0.499958  1
  Mn  Mn4  1  -0.000011  0.499987  0.000007  1
  Mn  Mn5  1  -0.000009  0.499910  0.500013  1
  S  S6  1  0.036397  0.735623  0.253528  1
  S  S7  1  0.488806  0.750359  0.726828  1
  S  S8  1  0.451302  0.727513  0.245069  1
  S  S9  1  0.990966  0.751607  0.730529  1
  S  S10  1  0.548683  0.272524  0.754913  1
  S  S11  1  0.511204  0.249653  0.273171  1
  S  S12  1  0.009091  0.248380  0.269523  1
  S  S13  1  0.963563  0.264314  0.746507  1
