# generated using pymatgen
data_Mg2VWO6
_symmetry_space_group_name_H-M   'P 1'
_cell_length_a   5.21128967
_cell_length_b   5.37400894
_cell_length_c   7.66235308
_cell_angle_alpha   90.00000000
_cell_angle_beta   90.58650120
_cell_angle_gamma   90.00000000
_symmetry_Int_Tables_number   1
_chemical_formula_structural   Mg2VWO6
_chemical_formula_sum   'Mg4 V2 W2 O12'
_cell_volume   214.57691921
_cell_formula_units_Z   2
loop_
 _symmetry_equiv_pos_site_id
 _symmetry_equiv_pos_as_xyz
  1  'x, y, z'
loop_
 _atom_site_type_symbol
 _atom_site_label
 _atom_site_symmetry_multiplicity
 _atom_site_fract_x
 _atom_site_fract_y
 _atom_site_fract_z
 _atom_site_occupancy
  Mg  Mg0  1  0.997775  0.046352  0.251996  1
  Mg  Mg1  1  0.502225  0.546353  0.248004  1
  Mg  Mg2  1  0.002226  0.953649  0.748004  1
  Mg  Mg3  1  0.497774  0.453648  0.751996  1
  V  V4  1  0.500000  0.000000  0.000000  1
  V  V5  1  0.000001  0.499999  0.500000  1
  W  W6  1  0.500000  0.000000  0.499999  1
  W  W7  1  0.000000  0.499999  0.000000  1
  O  O8  1  0.678455  0.317281  0.429178  1
  O  O9  1  0.821545  0.817282  0.070822  1
  O  O10  1  0.321544  0.682719  0.570822  1
  O  O11  1  0.178456  0.182718  0.929178  1
  O  O12  1  0.180252  0.177051  0.565771  1
  O  O13  1  0.319748  0.677050  0.934229  1
  O  O14  1  0.819749  0.822949  0.434229  1
  O  O15  1  0.680251  0.322950  0.065771  1
  O  O16  1  0.127325  0.422742  0.246143  1
  O  O17  1  0.372676  0.922743  0.253856  1
  O  O18  1  0.627325  0.077257  0.746144  1
  O  O19  1  0.872676  0.577258  0.753857  1
