# generated using pymatgen
data_FeO2
_symmetry_space_group_name_H-M   'P 1'
_cell_length_a   6.00675210
_cell_length_b   5.99576219
_cell_length_c   17.75165250
_cell_angle_alpha   59.32027037
_cell_angle_beta   59.76663715
_cell_angle_gamma   59.82464750
_symmetry_Int_Tables_number   1
_chemical_formula_structural   FeO2
_chemical_formula_sum   'Fe12 O24'
_cell_volume   448.32422560
_cell_formula_units_Z   12
loop_
 _symmetry_equiv_pos_site_id
 _symmetry_equiv_pos_as_xyz
  1  'x, y, z'
loop_
 _atom_site_type_symbol
 _atom_site_label
 _atom_site_symmetry_multiplicity
 _atom_site_fract_x
 _atom_site_fract_y
 _atom_site_fract_z
 _atom_site_occupancy
  Fe  Fe0  1  0.494153  0.494247  0.166840  1
  Fe  Fe1  1  -0.000240  0.499914  0.500010  1
  Fe  Fe2  1  0.502227  0.497022  0.333578  1
  Fe  Fe3  1  0.494746  0.009213  0.167584  1
  Fe  Fe4  1  0.499999  0.499625  0.500751  1
  Fe  Fe5  1  0.011049  0.493776  0.167606  1
  Fe  Fe6  1  0.499783  0.505688  0.666514  1
  Fe  Fe7  1  0.499337  0.000820  0.499965  1
  Fe  Fe8  1  0.499255  0.500260  0.833918  1
  Fe  Fe9  1  0.499455  0.998543  0.833560  1
  Fe  Fe10  1  0.998789  0.500476  0.833232  1
  Fe  Fe11  1  0.880158  0.874332  0.953984  1
  O  O12  1  0.239246  0.242952  0.106260  1
  O  O13  1  0.239597  0.701202  0.105043  1
  O  O14  1  0.252794  0.259386  0.243798  1
  O  O15  1  0.697796  0.241969  0.105672  1
  O  O16  1  0.276756  0.253672  0.420880  1
  O  O17  1  0.311686  0.728461  0.243312  1
  O  O18  1  0.747772  0.743133  0.087757  1
  O  O19  1  0.730093  0.309421  0.244165  1
  O  O20  1  0.273848  0.699288  0.417153  1
  O  O21  1  0.270469  0.256482  0.567672  1
  O  O22  1  0.706006  0.256925  0.420175  1
  O  O23  1  0.733427  0.729349  0.243003  1
  O  O24  1  0.278297  0.283862  0.746216  1
  O  O25  1  0.295496  0.741081  0.581166  1
  O  O26  1  0.729513  0.743380  0.432270  1
  O  O27  1  0.727268  0.301192  0.583073  1
  O  O28  1  0.268081  0.266970  0.901381  1
  O  O29  1  0.277523  0.708080  0.746831  1
  O  O30  1  0.704462  0.282615  0.746241  1
  O  O31  1  0.720501  0.742534  0.580448  1
  O  O32  1  0.262728  0.763170  0.902027  1
  O  O33  1  0.764938  0.259958  0.902297  1
  O  O34  1  0.727292  0.728032  0.768521  1
  O  O35  1  0.764097  0.761373  0.901996  1
