# generated using pymatgen
data_LaZnCrFeO6
_symmetry_space_group_name_H-M   'P 1'
_cell_length_a   5.52553772
_cell_length_b   5.35610013
_cell_length_c   7.64522676
_cell_angle_alpha   89.75316767
_cell_angle_beta   90.00000000
_cell_angle_gamma   90.00000000
_symmetry_Int_Tables_number   1
_chemical_formula_structural   LaZnCrFeO6
_chemical_formula_sum   'La2 Zn2 Cr2 Fe2 O12'
_cell_volume   226.26093441
_cell_formula_units_Z   2
loop_
 _symmetry_equiv_pos_site_id
 _symmetry_equiv_pos_as_xyz
  1  'x, y, z'
loop_
 _atom_site_type_symbol
 _atom_site_label
 _atom_site_symmetry_multiplicity
 _atom_site_fract_x
 _atom_site_fract_y
 _atom_site_fract_z
 _atom_site_occupancy
  La  La0  1  0.033753  0.989249  0.247762  1
  La  La1  1  0.466247  0.489249  0.747762  1
  Zn  Zn2  1  0.528612  0.524676  0.248501  1
  Zn  Zn3  1  0.971388  0.024676  0.748501  1
  Cr  Cr4  1  0.509765  -0.001193  0.498561  1
  Cr  Cr5  1  0.990235  0.498807  0.998561  1
  Fe  Fe6  1  0.501188  0.998111  0.998849  1
  Fe  Fe7  1  -0.001188  0.498111  0.498849  1
  O  O8  1  0.018087  0.635812  0.759040  1
  O  O9  1  0.198527  0.196735  0.940901  1
  O  O10  1  0.211143  0.190454  0.557636  1
  O  O11  1  0.288857  0.690454  0.057636  1
  O  O12  1  0.301473  0.696735  0.440901  1
  O  O13  1  0.481913  0.135812  0.259039  1
  O  O14  1  0.535344  0.921501  0.742970  1
  O  O15  1  0.737167  0.267315  0.559431  1
  O  O16  1  0.735578  0.277341  0.946349  1
  O  O17  1  0.764422  0.777341  0.446349  1
  O  O18  1  0.762833  0.767315  0.059431  1
  O  O19  1  0.964656  0.421501  0.242970  1
