# generated using pymatgen
data_Mg2CuWO6
_symmetry_space_group_name_H-M   'P 1'
_cell_length_a   5.00121865
_cell_length_b   5.17574556
_cell_length_c   8.52887676
_cell_angle_alpha   90.00000000
_cell_angle_beta   91.00504578
_cell_angle_gamma   90.00000000
_symmetry_Int_Tables_number   1
_chemical_formula_structural   Mg2CuWO6
_chemical_formula_sum   'Mg4 Cu2 W2 O12'
_cell_volume   220.73631093
_cell_formula_units_Z   2
loop_
 _symmetry_equiv_pos_site_id
 _symmetry_equiv_pos_as_xyz
  1  'x, y, z'
loop_
 _atom_site_type_symbol
 _atom_site_label
 _atom_site_symmetry_multiplicity
 _atom_site_fract_x
 _atom_site_fract_y
 _atom_site_fract_z
 _atom_site_occupancy
  Mg  Mg0  1  0.973387  0.051994  0.267797  1
  Mg  Mg1  1  0.526613  0.551995  0.232203  1
  Mg  Mg2  1  0.026614  0.948007  0.732203  1
  Mg  Mg3  1  0.473386  0.448006  0.767797  1
  Cu  Cu4  1  0.500000  0.000000  0.000000  1
  Cu  Cu5  1  0.000001  0.499999  0.500000  1
  W  W6  1  0.500000  0.000000  0.499999  1
  W  W7  1  0.000000  0.499999  0.000000  1
  O  O8  1  0.690346  0.289708  0.391123  1
  O  O9  1  0.809654  0.789709  0.108877  1
  O  O10  1  0.309653  0.710292  0.608877  1
  O  O11  1  0.190347  0.210291  0.891123  1
  O  O12  1  0.191047  0.200873  0.552347  1
  O  O13  1  0.308953  0.700872  0.947653  1
  O  O14  1  0.808954  0.799127  0.447653  1
  O  O15  1  0.691046  0.299128  0.052347  1
  O  O16  1  0.158763  0.392559  0.197241  1
  O  O17  1  0.341238  0.892560  0.302758  1
  O  O18  1  0.658763  0.107440  0.697242  1
  O  O19  1  0.841238  0.607441  0.802759  1
