# generated using pymatgen
data_MgTiSn(PO4)3
_symmetry_space_group_name_H-M   'P 1'
_cell_length_a   8.63873468
_cell_length_b   8.64951722
_cell_length_c   8.64931516
_cell_angle_alpha   60.88360370
_cell_angle_beta   60.93373992
_cell_angle_gamma   60.88499417
_symmetry_Int_Tables_number   1
_chemical_formula_structural   MgTiSn(PO4)3
_chemical_formula_sum   'Mg2 Ti2 Sn2 P6 O24'
_cell_volume   466.27046209
_cell_formula_units_Z   2
loop_
 _symmetry_equiv_pos_site_id
 _symmetry_equiv_pos_as_xyz
  1  'x, y, z'
loop_
 _atom_site_type_symbol
 _atom_site_label
 _atom_site_symmetry_multiplicity
 _atom_site_fract_x
 _atom_site_fract_y
 _atom_site_fract_z
 _atom_site_occupancy
  Mg  Mg0  1  0.004376  0.004365  0.004323  1
  Mg  Mg1  1  0.504323  0.504357  0.504345  1
  Ti  Ti2  1  0.144123  0.144323  0.144019  1
  Ti  Ti3  1  0.643833  0.644408  0.644216  1
  Sn  Sn4  1  0.354686  0.354637  0.354633  1
  Sn  Sn5  1  0.854682  0.854625  0.854662  1
  P  P6  1  0.046549  0.450428  0.749246  1
  P  P7  1  0.450381  0.749209  0.046573  1
  P  P8  1  0.749215  0.046372  0.450522  1
  P  P9  1  0.249146  0.950579  0.546438  1
  P  P10  1  0.546583  0.249293  0.950357  1
  P  P11  1  0.950375  0.546496  0.249255  1
  O  O12  1  0.105630  0.516420  0.310716  1
  O  O13  1  0.310752  0.105607  0.516418  1
  O  O14  1  0.059817  0.258239  0.908798  1
  O  O15  1  0.516405  0.310696  0.105622  1
  O  O16  1  0.016451  0.605617  0.810714  1
  O  O17  1  0.244194  0.436719  0.590847  1
  O  O18  1  0.258211  0.908782  0.059824  1
  O  O19  1  0.436762  0.590813  0.244130  1
  O  O20  1  0.182639  0.995663  0.391112  1
  O  O21  1  0.590900  0.244114  0.436705  1
  O  O22  1  0.090911  0.936698  0.744120  1
  O  O23  1  0.390810  0.182577  0.995815  1
  O  O24  1  0.605635  0.810687  0.016411  1
  O  O25  1  0.908908  0.059873  0.258168  1
  O  O26  1  0.408867  0.758165  0.559872  1
  O  O27  1  0.810750  0.016393  0.605628  1
  O  O28  1  0.559754  0.408754  0.758312  1
  O  O29  1  0.744208  0.090801  0.936733  1
  O  O30  1  0.758147  0.559843  0.408808  1
  O  O31  1  0.995752  0.390994  0.182600  1
  O  O32  1  0.495782  0.682573  0.890915  1
  O  O33  1  0.936748  0.744085  0.090866  1
  O  O34  1  0.682676  0.891078  0.495695  1
  O  O35  1  0.891017  0.495718  0.682583  1
