# generated using pymatgen
data_CaCuO2
_symmetry_space_group_name_H-M   'P 1'
_cell_length_a   3.06902200
_cell_length_b   8.57608558
_cell_length_c   8.53381359
_cell_angle_alpha   91.13259631
_cell_angle_beta   72.21834624
_cell_angle_gamma   88.35967047
_symmetry_Int_Tables_number   1
_chemical_formula_structural   CaCuO2
_chemical_formula_sum   'Ca4 Cu4 O8'
_cell_volume   213.69776238
_cell_formula_units_Z   4
loop_
 _symmetry_equiv_pos_site_id
 _symmetry_equiv_pos_as_xyz
  1  'x, y, z'
loop_
 _atom_site_type_symbol
 _atom_site_label
 _atom_site_symmetry_multiplicity
 _atom_site_fract_x
 _atom_site_fract_y
 _atom_site_fract_z
 _atom_site_occupancy
  Ca  Ca0  1  0.590450  0.023964  0.199697  1
  Ca  Ca1  1  0.405841  0.955953  0.828311  1
  Ca  Ca2  1  0.191494  0.664342  0.099516  1
  Ca  Ca3  1  0.803141  0.315350  0.928875  1
  Cu  Cu4  1  0.627153  0.185322  0.559148  1
  Cu  Cu5  1  0.030177  0.361475  0.274453  1
  Cu  Cu6  1  0.961622  0.618672  0.754532  1
  Cu  Cu7  1  0.371691  0.794872  0.469024  1
  O  O8  1  0.749478  0.755858  0.619902  1
  O  O9  1  0.364699  0.504825  0.844830  1
  O  O10  1  0.628156  0.474653  0.183417  1
  O  O11  1  0.248904  0.224988  0.408267  1
  O  O12  1  0.006957  0.133094  0.702136  1
  O  O13  1  0.211488  0.151532  0.045492  1
  O  O14  1  0.992017  0.846794  0.325831  1
  O  O15  1  0.785008  0.827643  0.982185  1
