# generated using pymatgen
data_Zn(WO2)2
_symmetry_space_group_name_H-M   'P 1'
_cell_length_a   6.39777719
_cell_length_b   6.49300075
_cell_length_c   19.23020427
_cell_angle_alpha   60.08860509
_cell_angle_beta   58.58749353
_cell_angle_gamma   59.64665891
_symmetry_Int_Tables_number   1
_chemical_formula_structural   Zn(WO2)2
_chemical_formula_sum   'Zn6 W12 O24'
_cell_volume   557.47415859
_cell_formula_units_Z   6
loop_
 _symmetry_equiv_pos_site_id
 _symmetry_equiv_pos_as_xyz
  1  'x, y, z'
loop_
 _atom_site_type_symbol
 _atom_site_label
 _atom_site_symmetry_multiplicity
 _atom_site_fract_x
 _atom_site_fract_y
 _atom_site_fract_z
 _atom_site_occupancy
  Zn  Zn0  1  0.135603  0.134689  0.040271  1
  Zn  Zn1  1  0.487513  0.513758  0.327286  1
  Zn  Zn2  1  0.990850  0.505368  0.162411  1
  Zn  Zn3  1  0.504342  0.496959  0.667234  1
  Zn  Zn4  1  0.012095  0.490091  0.502602  1
  Zn  Zn5  1  0.995161  0.496919  0.838266  1
  W  W6  1  0.483123  -0.006291  0.170904  1
  W  W7  1  0.132715  0.098169  0.390752  1
  W  W8  1  0.494754  0.492883  0.010556  1
  W  W9  1  0.479066  0.509526  0.166384  1
  W  W10  1  0.512563  0.005238  0.495019  1
  W  W11  1  0.104665  0.077267  0.747682  1
  W  W12  1  0.511992  0.500794  0.494053  1
  W  W13  1  0.502389  0.995980  0.835398  1
  W  W14  1  0.786693  0.910016  0.295240  1
  W  W15  1  0.501875  0.496401  0.835673  1
  W  W16  1  0.920100  0.918112  0.582194  1
  W  W17  1  0.905931  0.887575  0.942329  1
  O  O18  1  0.248566  0.254603  0.091548  1
  O  O19  1  0.245307  0.260459  0.244622  1
  O  O20  1  0.247496  0.736053  0.092711  1
  O  O21  1  0.716820  0.249453  0.097181  1
  O  O22  1  0.282420  0.264619  0.411498  1
  O  O23  1  0.266656  0.730117  0.245721  1
  O  O24  1  0.275753  0.271696  0.562043  1
  O  O25  1  0.725743  0.283583  0.240979  1
  O  O26  1  0.281164  0.722808  0.410282  1
  O  O27  1  0.728785  0.735362  0.095113  1
  O  O28  1  0.742697  0.263335  0.409196  1
  O  O29  1  0.741631  0.734562  0.245715  1
  O  O30  1  0.285008  0.255862  0.746850  1
  O  O31  1  0.292326  0.739730  0.576817  1
  O  O32  1  0.745868  0.283965  0.576475  1
  O  O33  1  0.285173  0.720692  0.746831  1
  O  O34  1  0.237475  0.268978  0.908165  1
  O  O35  1  0.765500  0.740005  0.419205  1
  O  O36  1  0.730078  0.255837  0.752383  1
  O  O37  1  0.747895  0.740391  0.576915  1
  O  O38  1  0.296703  0.717973  0.923523  1
  O  O39  1  0.693468  0.277947  0.926511  1
  O  O40  1  0.754331  0.715180  0.771096  1
  O  O41  1  0.701704  0.753335  0.924364  1
