# generated using pymatgen
data_CaW3O7
_symmetry_space_group_name_H-M   'P 1'
_cell_length_a   5.35645427
_cell_length_b   10.64195718
_cell_length_c   10.18767695
_cell_angle_alpha   90.00000000
_cell_angle_beta   90.00000000
_cell_angle_gamma   90.00000000
_symmetry_Int_Tables_number   1
_chemical_formula_structural   CaW3O7
_chemical_formula_sum   'Ca4 W12 O28'
_cell_volume   580.72974842
_cell_formula_units_Z   4
loop_
 _symmetry_equiv_pos_site_id
 _symmetry_equiv_pos_as_xyz
  1  'x, y, z'
loop_
 _atom_site_type_symbol
 _atom_site_label
 _atom_site_symmetry_multiplicity
 _atom_site_fract_x
 _atom_site_fract_y
 _atom_site_fract_z
 _atom_site_occupancy
  Ca  Ca0  1  0.663088  0.750000  0.863141  1
  Ca  Ca1  1  0.163088  0.250000  0.636859  1
  Ca  Ca2  1  0.336912  0.250000  0.136859  1
  Ca  Ca3  1  0.836912  0.750000  0.363141  1
  W  W4  1  0.377914  0.984095  0.357083  1
  W  W5  1  0.877914  0.015905  0.142917  1
  W  W6  1  0.622086  0.484095  0.642917  1
  W  W7  1  0.122086  0.515905  0.857083  1
  W  W8  1  0.343138  0.750000  0.146606  1
  W  W9  1  0.843138  0.250000  0.353394  1
  W  W10  1  0.656862  0.250000  0.853394  1
  W  W11  1  0.156862  0.750000  0.646606  1
  W  W12  1  0.877914  0.484095  0.142917  1
  W  W13  1  0.377914  0.515905  0.357083  1
  W  W14  1  0.122086  0.984095  0.857083  1
  W  W15  1  0.622086  0.015905  0.642917  1
  O  O16  1  0.888959  0.114895  0.765786  1
  O  O17  1  0.388959  0.885105  0.734214  1
  O  O18  1  0.111041  0.614895  0.234214  1
  O  O19  1  0.611041  0.385105  0.265786  1
  O  O20  1  0.111041  0.885105  0.234214  1
  O  O21  1  0.611041  0.114895  0.265786  1
  O  O22  1  0.888959  0.385105  0.765786  1
  O  O23  1  0.388959  0.614895  0.734214  1
  O  O24  1  0.409141  0.118133  0.790504  1
  O  O25  1  0.909141  0.881867  0.709496  1
  O  O26  1  0.590859  0.618133  0.209496  1
  O  O27  1  0.090859  0.381867  0.290504  1
  O  O28  1  0.590859  0.881867  0.209496  1
  O  O29  1  0.090859  0.118133  0.290504  1
  O  O30  1  0.409141  0.381867  0.790504  1
  O  O31  1  0.909141  0.618133  0.709496  1
  O  O32  1  0.245748  0.750000  0.462039  1
  O  O33  1  0.745748  0.250000  0.037961  1
  O  O34  1  0.754252  0.250000  0.537961  1
  O  O35  1  0.254252  0.750000  0.962039  1
  O  O36  1  0.185223  0.430661  0.033000  1
  O  O37  1  0.685223  0.569339  0.467000  1
  O  O38  1  0.814777  0.930661  0.967000  1
  O  O39  1  0.314777  0.069339  0.533000  1
  O  O40  1  0.814777  0.569339  0.967000  1
  O  O41  1  0.314777  0.430661  0.533000  1
  O  O42  1  0.185223  0.069339  0.033000  1
  O  O43  1  0.685223  0.930661  0.467000  1
