# generated using pymatgen
data_Mg2MnWO6
_symmetry_space_group_name_H-M   'P 1'
_cell_length_a   5.56880655
_cell_length_b   6.38923573
_cell_length_c   7.62488763
_cell_angle_alpha   90.31888075
_cell_angle_beta   131.41393042
_cell_angle_gamma   125.13107263
_symmetry_Int_Tables_number   1
_chemical_formula_structural   Mg2MnWO6
_chemical_formula_sum   'Mg2 Mn1 W1 O6'
_cell_volume   129.26253640
_cell_formula_units_Z   1
loop_
 _symmetry_equiv_pos_site_id
 _symmetry_equiv_pos_as_xyz
  1  'x, y, z'
loop_
 _atom_site_type_symbol
 _atom_site_label
 _atom_site_symmetry_multiplicity
 _atom_site_fract_x
 _atom_site_fract_y
 _atom_site_fract_z
 _atom_site_occupancy
  Mg  Mg0  1  0.914489  0.589540  0.251467  1
  Mg  Mg1  1  0.087786  0.672920  0.749355  1
  Mn  Mn2  1  0.995192  0.038590  0.499534  1
  W  W3  1  0.002071  0.943983  0.001692  1
  O  O4  1  0.693340  0.785399  0.095636  1
  O  O5  1  0.309211  0.092216  0.906634  1
  O  O6  1  0.517220  0.402037  0.297914  1
  O  O7  1  0.482444  0.875609  0.702017  1
  O  O8  1  0.410488  0.922761  0.299223  1
  O  O9  1  0.604957  0.510912  0.712625  1
