# generated using pymatgen
data_Zn(MoO2)4
_symmetry_space_group_name_H-M   'P 1'
_cell_length_a   6.18258044
_cell_length_b   6.18258075
_cell_length_c   6.18258087
_cell_angle_alpha   62.92139247
_cell_angle_beta   62.92138846
_cell_angle_gamma   62.92140170
_symmetry_Int_Tables_number   1
_chemical_formula_structural   Zn(MoO2)4
_chemical_formula_sum   'Zn1 Mo4 O8'
_cell_volume   177.95144795
_cell_formula_units_Z   1
loop_
 _symmetry_equiv_pos_site_id
 _symmetry_equiv_pos_as_xyz
  1  'x, y, z'
loop_
 _atom_site_type_symbol
 _atom_site_label
 _atom_site_symmetry_multiplicity
 _atom_site_fract_x
 _atom_site_fract_y
 _atom_site_fract_z
 _atom_site_occupancy
  Zn  Zn0  1  0.500000  0.500001  0.499999  1
  Mo  Mo1  1  0.500001  0.999999  0.500001  1
  Mo  Mo2  1  0.999999  0.500000  0.500001  1
  Mo  Mo3  1  0.500000  0.500000  -0.000000  1
  Mo  Mo4  1  -0.000000  0.000000  -0.000000  1
  O  O5  1  0.752293  0.275705  0.752293  1
  O  O6  1  0.247706  0.247707  0.724295  1
  O  O7  1  0.247706  0.724296  0.247706  1
  O  O8  1  0.724294  0.247707  0.247707  1
  O  O9  1  0.271175  0.271176  0.271175  1
  O  O10  1  0.728825  0.728825  0.728825  1
  O  O11  1  0.275706  0.752294  0.752293  1
  O  O12  1  0.752294  0.752294  0.275705  1
