# generated using pymatgen
data_Mn4Zn(CuO4)3
_symmetry_space_group_name_H-M   'P 1'
_cell_length_a   6.37330402
_cell_length_b   6.37330343
_cell_length_c   6.37330365
_cell_angle_alpha   109.47122134
_cell_angle_beta   109.47121945
_cell_angle_gamma   109.47121591
_symmetry_Int_Tables_number   1
_chemical_formula_structural   Mn4Zn(CuO4)3
_chemical_formula_sum   'Mn4 Zn1 Cu3 O12'
_cell_volume   199.28379223
_cell_formula_units_Z   1
loop_
 _symmetry_equiv_pos_site_id
 _symmetry_equiv_pos_as_xyz
  1  'x, y, z'
loop_
 _atom_site_type_symbol
 _atom_site_label
 _atom_site_symmetry_multiplicity
 _atom_site_fract_x
 _atom_site_fract_y
 _atom_site_fract_z
 _atom_site_occupancy
  Mn  Mn0  1  -0.000000  -0.000000  0.500000  1
  Mn  Mn1  1  -0.000000  0.500000  -0.000000  1
  Mn  Mn2  1  0.500000  0.500000  0.500000  1
  Mn  Mn3  1  0.500000  -0.000000  -0.000000  1
  Zn  Zn4  1  -0.000000  -0.000000  -0.000000  1
  Cu  Cu5  1  0.500000  0.500000  -0.000000  1
  Cu  Cu6  1  -0.000000  0.500000  0.500000  1
  Cu  Cu7  1  0.500000  -0.000000  0.500000  1
  O  O8  1  0.830180  0.308746  0.138925  1
  O  O9  1  0.169820  0.691254  0.861075  1
  O  O10  1  0.830180  0.691254  0.521435  1
  O  O11  1  0.308746  0.478565  0.169820  1
  O  O12  1  0.478565  0.169820  0.308746  1
  O  O13  1  0.138925  0.830180  0.308746  1
  O  O14  1  0.691254  0.861075  0.169820  1
  O  O15  1  0.521435  0.830180  0.691254  1
  O  O16  1  0.169820  0.308746  0.478565  1
  O  O17  1  0.691254  0.521435  0.830180  1
  O  O18  1  0.861075  0.169820  0.691254  1
  O  O19  1  0.308746  0.138925  0.830180  1
