# generated using pymatgen
data_Ca2YCoO5
_symmetry_space_group_name_H-M   'P 1'
_cell_length_a   5.16760463
_cell_length_b   5.39660564
_cell_length_c   9.36596224
_cell_angle_alpha   106.84418636
_cell_angle_beta   106.40472076
_cell_angle_gamma   89.19364235
_symmetry_Int_Tables_number   1
_chemical_formula_structural   Ca2YCoO5
_chemical_formula_sum   'Ca4 Y2 Co2 O10'
_cell_volume   239.15647099
_cell_formula_units_Z   2
loop_
 _symmetry_equiv_pos_site_id
 _symmetry_equiv_pos_as_xyz
  1  'x, y, z'
loop_
 _atom_site_type_symbol
 _atom_site_label
 _atom_site_symmetry_multiplicity
 _atom_site_fract_x
 _atom_site_fract_y
 _atom_site_fract_z
 _atom_site_occupancy
  Ca  Ca0  1  0.084457  0.618476  0.194246  1
  Ca  Ca1  1  0.392457  0.919908  0.803388  1
  Ca  Ca2  1  0.889744  0.380029  0.803643  1
  Ca  Ca3  1  0.585349  0.078259  0.194525  1
  Y  Y4  1  0.268525  0.282482  0.501633  1
  Y  Y5  1  0.765091  0.715776  0.496404  1
  Co  Co6  1  0.481981  0.499251  0.999059  1
  Co  Co7  1  0.982547  0.999247  0.999020  1
  O  O8  1  0.712478  0.309378  0.499067  1
  O  O9  1  0.211709  0.689024  0.498893  1
  O  O10  1  0.600365  0.672808  0.249637  1
  O  O11  1  0.350027  0.325729  0.748232  1
  O  O12  1  0.103140  0.073284  0.260369  1
  O  O13  1  0.840787  0.925288  0.737488  1
  O  O14  1  0.227325  0.738508  0.976856  1
  O  O15  1  0.235788  0.253328  0.021938  1
  O  O16  1  0.739133  0.262394  0.020886  1
  O  O17  1  0.730870  0.742466  0.975973  1
