# generated using pymatgen
data_LaCrReO6
_symmetry_space_group_name_H-M   'P 1'
_cell_length_a   5.49230393
_cell_length_b   5.48953386
_cell_length_c   5.47829165
_cell_angle_alpha   59.99943275
_cell_angle_beta   120.05113119
_cell_angle_gamma   89.93378740
_symmetry_Int_Tables_number   1
_chemical_formula_structural   LaCrReO6
_chemical_formula_sum   'La1 Cr1 Re1 O6'
_cell_volume   116.63473870
_cell_formula_units_Z   1
loop_
 _symmetry_equiv_pos_site_id
 _symmetry_equiv_pos_as_xyz
  1  'x, y, z'
loop_
 _atom_site_type_symbol
 _atom_site_label
 _atom_site_symmetry_multiplicity
 _atom_site_fract_x
 _atom_site_fract_y
 _atom_site_fract_z
 _atom_site_occupancy
  La  La0  1  0.755348  0.260319  0.501357  1
  Cr  Cr1  1  0.000832  0.510319  0.999622  1
  Re  Re2  1  0.501375  0.009904  0.001165  1
  O  O3  1  0.306157  0.253517  0.507583  1
  O  O4  1  0.230508  0.282474  0.949983  1
  O  O5  1  0.762956  0.728437  0.051112  1
  O  O6  1  0.225107  0.793338  0.956105  1
  O  O7  1  0.770022  0.233643  0.040896  1
  O  O8  1  0.707933  0.769461  0.492590  1
