# generated using pymatgen
data_Ca2Cr3O8
_symmetry_space_group_name_H-M   'P 1'
_cell_length_a   5.04584608
_cell_length_b   6.01811471
_cell_length_c   6.32661074
_cell_angle_alpha   118.39967330
_cell_angle_beta   107.62630078
_cell_angle_gamma   89.99999693
_symmetry_Int_Tables_number   1
_chemical_formula_structural   Ca2Cr3O8
_chemical_formula_sum   'Ca2 Cr3 O8'
_cell_volume   158.66740262
_cell_formula_units_Z   1
loop_
 _symmetry_equiv_pos_site_id
 _symmetry_equiv_pos_as_xyz
  1  'x, y, z'
loop_
 _atom_site_type_symbol
 _atom_site_label
 _atom_site_symmetry_multiplicity
 _atom_site_fract_x
 _atom_site_fract_y
 _atom_site_fract_z
 _atom_site_occupancy
  Ca  Ca0  1  0.669430  0.725137  0.450273  1
  Ca  Ca1  1  0.330569  0.274864  0.549727  1
  Cr  Cr2  1  0.500000  0.999999  0.000000  1
  Cr  Cr3  1  0.999999  0.739087  0.000000  1
  Cr  Cr4  1  0.999999  0.260913  1.000000  1
  O  O5  1  0.041436  0.395981  0.791963  1
  O  O6  1  0.958564  0.604018  0.208037  1
  O  O7  1  0.091294  0.901079  0.802159  1
  O  O8  1  0.908706  0.098920  0.197840  1
  O  O9  1  0.390417  0.318096  0.200648  1
  O  O10  1  0.390417  0.882552  0.200648  1
  O  O11  1  0.609584  0.117447  0.799352  1
  O  O12  1  0.609584  0.681904  0.799352  1
