# generated using pymatgen
data_W2O5
_symmetry_space_group_name_H-M   'P 1'
_cell_length_a   12.03263018
_cell_length_b   6.12845261
_cell_length_c   3.91586425
_cell_angle_alpha   108.63161934
_cell_angle_beta   90.00000000
_cell_angle_gamma   90.00000000
_symmetry_Int_Tables_number   1
_chemical_formula_structural   W2O5
_chemical_formula_sum   'W4 O10'
_cell_volume   273.62799380
_cell_formula_units_Z   2
loop_
 _symmetry_equiv_pos_site_id
 _symmetry_equiv_pos_as_xyz
  1  'x, y, z'
loop_
 _atom_site_type_symbol
 _atom_site_label
 _atom_site_symmetry_multiplicity
 _atom_site_fract_x
 _atom_site_fract_y
 _atom_site_fract_z
 _atom_site_occupancy
  W  W0  1  0.150699  0.898396  0.949198  1
  W  W1  1  0.349301  0.101604  0.550802  1
  W  W2  1  0.650699  0.101604  0.550802  1
  W  W3  1  0.849301  0.898396  0.949198  1
  O  O4  1  -0.000000  0.026518  0.013259  1
  O  O5  1  0.139421  0.602450  0.801225  1
  O  O6  1  0.181872  0.994740  0.497370  1
  O  O7  1  0.318127  0.005258  0.002629  1
  O  O8  1  0.360579  0.397550  0.698775  1
  O  O9  1  0.500000  0.973482  0.486741  1
  O  O10  1  0.639421  0.397550  0.698775  1
  O  O11  1  0.860579  0.602450  0.801225  1
  O  O12  1  0.681872  0.005258  0.002629  1
  O  O13  1  0.818128  0.994740  0.497370  1
