# generated using pymatgen
data_BaAlCuBiO5
_symmetry_space_group_name_H-M   'P 1'
_cell_length_a   3.73819501
_cell_length_b   3.73818430
_cell_length_c   9.37159753
_cell_angle_alpha   90.02131396
_cell_angle_beta   89.99506940
_cell_angle_gamma   90.01321017
_symmetry_Int_Tables_number   1
_chemical_formula_structural   BaAlCuBiO5
_chemical_formula_sum   'Ba1 Al1 Cu1 Bi1 O5'
_cell_volume   130.95927086
_cell_formula_units_Z   1
loop_
 _symmetry_equiv_pos_site_id
 _symmetry_equiv_pos_as_xyz
  1  'x, y, z'
loop_
 _atom_site_type_symbol
 _atom_site_label
 _atom_site_symmetry_multiplicity
 _atom_site_fract_x
 _atom_site_fract_y
 _atom_site_fract_z
 _atom_site_occupancy
  Ba  Ba0  1  0.000000  0.999991  0.055334  1
  Al  Al1  1  0.000015  0.000026  0.442058  1
  Cu  Cu2  1  0.499993  0.500039  0.278804  1
  Bi  Bi3  1  0.499996  0.499999  0.697461  1
  O  O4  1  0.000014  0.499847  0.565968  1
  O  O5  1  0.500026  0.999928  0.565964  1
  O  O6  1  0.999983  0.500141  0.306256  1
  O  O7  1  0.499958  0.000069  0.306252  1
  O  O8  1  0.500009  0.499958  0.969821  1
