# generated using pymatgen
data_BaCaWF7
_symmetry_space_group_name_H-M   'P 1'
_cell_length_a   5.97731203
_cell_length_b   10.27059208
_cell_length_c   10.66116122
_cell_angle_alpha   90.00000000
_cell_angle_beta   90.00000000
_cell_angle_gamma   91.33923180
_symmetry_Int_Tables_number   1
_chemical_formula_structural   BaCaWF7
_chemical_formula_sum   'Ba4 Ca4 W4 F28'
_cell_volume   654.31559482
_cell_formula_units_Z   4
loop_
 _symmetry_equiv_pos_site_id
 _symmetry_equiv_pos_as_xyz
  1  'x, y, z'
loop_
 _atom_site_type_symbol
 _atom_site_label
 _atom_site_symmetry_multiplicity
 _atom_site_fract_x
 _atom_site_fract_y
 _atom_site_fract_z
 _atom_site_occupancy
  Ba  Ba0  1  0.269810  0.500532  0.336560  1
  Ba  Ba1  1  0.730190  0.999468  0.836560  1
  Ba  Ba2  1  0.730190  0.499468  0.663440  1
  Ba  Ba3  1  0.269810  0.000532  0.163440  1
  Ca  Ca4  1  0.696140  0.818917  0.406414  1
  Ca  Ca5  1  0.303860  0.681083  0.906414  1
  Ca  Ca6  1  0.696140  0.318917  0.093586  1
  Ca  Ca7  1  0.303860  0.181083  0.593586  1
  W  W8  1  0.189500  0.809977  0.620575  1
  W  W9  1  0.810500  0.190023  0.379425  1
  W  W10  1  0.189500  0.309977  0.879425  1
  W  W11  1  0.810500  0.690023  0.120575  1
  F  F12  1  0.119937  0.107278  0.424510  1
  F  F13  1  0.350620  0.375939  0.044172  1
  F  F14  1  0.481862  0.734891  0.707938  1
  F  F15  1  0.518138  0.265109  0.292062  1
  F  F16  1  0.929272  0.365319  0.463554  1
  F  F17  1  0.289969  0.489156  0.794332  1
  F  F18  1  0.011143  0.744745  0.782440  1
  F  F19  1  0.070728  0.134681  0.963554  1
  F  F20  1  0.350620  0.875939  0.455828  1
  F  F21  1  0.518138  0.765109  0.207938  1
  F  F22  1  0.119937  0.607278  0.075490  1
  F  F23  1  0.880063  0.892722  0.575490  1
  F  F24  1  0.988857  0.755255  0.282440  1
  F  F25  1  0.412823  0.878965  0.960017  1
  F  F26  1  0.070728  0.634681  0.536446  1
  F  F27  1  0.929272  0.865319  0.036446  1
  F  F28  1  0.988857  0.255255  0.217560  1
  F  F29  1  0.880063  0.392722  0.924510  1
  F  F30  1  0.587177  0.621035  0.460017  1
  F  F31  1  0.649380  0.624061  0.955828  1
  F  F32  1  0.587177  0.121035  0.039983  1
  F  F33  1  0.011143  0.244745  0.717560  1
  F  F34  1  0.412823  0.378965  0.539983  1
  F  F35  1  0.710031  0.010844  0.294332  1
  F  F36  1  0.710031  0.510844  0.205668  1
  F  F37  1  0.289969  0.989156  0.705668  1
  F  F38  1  0.649380  0.124061  0.544172  1
  F  F39  1  0.481862  0.234891  0.792062  1
