# generated using pymatgen
data_Zn(AgO2)2
_symmetry_space_group_name_H-M   'P 1'
_cell_length_a   6.30584450
_cell_length_b   6.43554799
_cell_length_c   6.43554750
_cell_angle_alpha   59.99999167
_cell_angle_beta   59.31722090
_cell_angle_gamma   59.31722607
_symmetry_Int_Tables_number   1
_chemical_formula_structural   Zn(AgO2)2
_chemical_formula_sum   'Zn2 Ag4 O8'
_cell_volume   182.74239842
_cell_formula_units_Z   2
loop_
 _symmetry_equiv_pos_site_id
 _symmetry_equiv_pos_as_xyz
  1  'x, y, z'
loop_
 _atom_site_type_symbol
 _atom_site_label
 _atom_site_symmetry_multiplicity
 _atom_site_fract_x
 _atom_site_fract_y
 _atom_site_fract_z
 _atom_site_occupancy
  Zn  Zn0  1  0.975932  0.008023  0.008023  1
  Zn  Zn1  1  0.120919  0.626360  0.626360  1
  Ag  Ag2  1  0.268920  0.243694  0.243694  1
  Ag  Ag3  1  0.624802  0.123004  0.626096  1
  Ag  Ag4  1  0.624802  0.626096  0.123004  1
  Ag  Ag5  1  0.624802  0.626096  0.626096  1
  O  O6  1  0.398854  0.387699  0.387699  1
  O  O7  1  0.398854  0.387699  0.825747  1
  O  O8  1  0.398854  0.825747  0.387699  1
  O  O9  1  0.860501  0.379833  0.379833  1
  O  O10  1  0.363117  0.878960  0.878960  1
  O  O11  1  0.863214  0.403469  0.866659  1
  O  O12  1  0.863214  0.866659  0.403469  1
  O  O13  1  0.863214  0.866659  0.866659  1
