# generated using pymatgen
data_Sn(WO4)2
_symmetry_space_group_name_H-M   'P 1'
_cell_length_a   5.09640837
_cell_length_b   5.88362018
_cell_length_c   9.58223478
_cell_angle_alpha   90.00000000
_cell_angle_beta   90.99569288
_cell_angle_gamma   90.00000000
_symmetry_Int_Tables_number   1
_chemical_formula_structural   Sn(WO4)2
_chemical_formula_sum   'Sn2 W4 O16'
_cell_volume   287.28309748
_cell_formula_units_Z   2
loop_
 _symmetry_equiv_pos_site_id
 _symmetry_equiv_pos_as_xyz
  1  'x, y, z'
loop_
 _atom_site_type_symbol
 _atom_site_label
 _atom_site_symmetry_multiplicity
 _atom_site_fract_x
 _atom_site_fract_y
 _atom_site_fract_z
 _atom_site_occupancy
  Sn  Sn0  1  0.750000  0.339244  0.250000  1
  Sn  Sn1  1  0.250000  0.660755  0.750000  1
  W  W2  1  0.235742  0.168859  0.508815  1
  W  W3  1  0.264257  0.168859  0.991186  1
  W  W4  1  0.764258  0.831141  0.491185  1
  W  W5  1  0.735743  0.831141  0.008814  1
  O  O6  1  0.412638  0.344455  0.132197  1
  O  O7  1  0.087361  0.344455  0.367802  1
  O  O8  1  0.587362  0.655544  0.867803  1
  O  O9  1  0.912638  0.655544  0.632198  1
  O  O10  1  0.426034  0.892932  0.605264  1
  O  O11  1  0.073966  0.892932  0.894736  1
  O  O12  1  0.573966  0.107068  0.394736  1
  O  O13  1  0.926034  0.107068  0.105264  1
  O  O14  1  0.867839  0.605052  0.120231  1
  O  O15  1  0.632161  0.605052  0.379769  1
  O  O16  1  0.132161  0.394949  0.879769  1
  O  O17  1  0.367839  0.394949  0.620231  1
  O  O18  1  0.440907  0.896300  0.109786  1
  O  O19  1  0.559093  0.103701  0.890214  1
  O  O20  1  0.059094  0.896300  0.390215  1
  O  O21  1  0.940906  0.103701  0.609785  1
