# generated using pymatgen
data_Mg2TaCrO6
_symmetry_space_group_name_H-M   'P 1'
_cell_length_a   5.16618192
_cell_length_b   5.38967660
_cell_length_c   7.59150800
_cell_angle_alpha   90.00000000
_cell_angle_beta   90.00000000
_cell_angle_gamma   89.57246676
_symmetry_Int_Tables_number   1
_chemical_formula_structural   Mg2TaCrO6
_chemical_formula_sum   'Mg4 Ta2 Cr2 O12'
_cell_volume   211.37244224
_cell_formula_units_Z   2
loop_
 _symmetry_equiv_pos_site_id
 _symmetry_equiv_pos_as_xyz
  1  'x, y, z'
loop_
 _atom_site_type_symbol
 _atom_site_label
 _atom_site_symmetry_multiplicity
 _atom_site_fract_x
 _atom_site_fract_y
 _atom_site_fract_z
 _atom_site_occupancy
  Mg  Mg0  1  0.007042  0.958395  0.250000  1
  Mg  Mg1  1  0.486329  0.430375  0.250000  1
  Mg  Mg2  1  0.513671  0.569625  0.750000  1
  Mg  Mg3  1  0.992958  0.041605  0.750000  1
  Ta  Ta4  1  0.000000  0.500000  0.000000  1
  Ta  Ta5  1  0.000000  0.500000  0.500000  1
  Cr  Cr6  1  0.500000  0.000000  0.000000  1
  Cr  Cr7  1  0.500000  0.000000  0.500000  1
  O  O8  1  0.821298  0.809641  0.568494  1
  O  O9  1  0.314458  0.683161  0.431798  1
  O  O10  1  0.178702  0.190359  0.431506  1
  O  O11  1  0.685542  0.316839  0.931798  1
  O  O12  1  0.131506  0.439671  0.750000  1
  O  O13  1  0.685542  0.316839  0.568202  1
  O  O14  1  0.314458  0.683161  0.068202  1
  O  O15  1  0.821298  0.809641  0.931506  1
  O  O16  1  0.631035  0.068781  0.250000  1
  O  O17  1  0.178702  0.190359  0.068494  1
  O  O18  1  0.368965  0.931219  0.750000  1
  O  O19  1  0.868494  0.560329  0.250000  1
