# generated using pymatgen
data_YFe3Se2ClO8
_symmetry_space_group_name_H-M   'P 1'
_cell_length_a   6.51620330
_cell_length_b   7.25912992
_cell_length_c   9.67287051
_cell_angle_alpha   89.98833993
_cell_angle_beta   89.97800027
_cell_angle_gamma   90.00078208
_symmetry_Int_Tables_number   1
_chemical_formula_structural   YFe3Se2ClO8
_chemical_formula_sum   'Y2 Fe6 Se4 Cl2 O16'
_cell_volume   457.54575199
_cell_formula_units_Z   2
loop_
 _symmetry_equiv_pos_site_id
 _symmetry_equiv_pos_as_xyz
  1  'x, y, z'
loop_
 _atom_site_type_symbol
 _atom_site_label
 _atom_site_symmetry_multiplicity
 _atom_site_fract_x
 _atom_site_fract_y
 _atom_site_fract_z
 _atom_site_occupancy
  Y  Y0  1  0.249996  0.272376  0.249949  1
  Y  Y1  1  0.749998  0.727640  0.750042  1
  Fe  Fe2  1  0.500027  0.999944  0.000082  1
  Fe  Fe3  1  0.499985  0.000017  0.500041  1
  Fe  Fe4  1  0.000001  -0.000005  0.999955  1
  Fe  Fe5  1  0.750007  0.201474  0.750000  1
  Fe  Fe6  1  0.249963  0.798502  0.250012  1
  Fe  Fe7  1  0.000009  0.000013  0.499949  1
  Se  Se8  1  0.749986  0.414478  0.062892  1
  Se  Se9  1  0.249986  0.585498  0.937127  1
  Se  Se10  1  0.749984  0.414444  0.437056  1
  Se  Se11  1  0.250025  0.585554  0.562929  1
  Cl  Cl12  1  0.250008  0.128045  0.750284  1
  Cl  Cl13  1  0.750027  0.872000  0.249699  1
  O  O14  1  0.249901  0.008861  0.113409  1
  O  O15  1  0.249906  0.575529  0.117400  1
  O  O16  1  0.749976  0.424465  0.617340  1
  O  O17  1  0.541970  0.271375  0.091265  1
  O  O18  1  0.458043  0.728648  0.591266  1
  O  O19  1  0.041988  0.728680  0.591290  1
  O  O20  1  0.749991  0.991128  0.886611  1
  O  O21  1  0.958016  0.271433  0.091250  1
  O  O22  1  0.958021  0.271332  0.408700  1
  O  O23  1  0.041961  0.728573  0.908730  1
  O  O24  1  0.250119  0.008832  0.386632  1
  O  O25  1  0.749996  0.991176  0.613342  1
  O  O26  1  0.458001  0.728606  0.908738  1
  O  O27  1  0.541972  0.271372  0.408749  1
  O  O28  1  0.750039  0.424473  0.882580  1
  O  O29  1  0.250095  0.575537  0.382678  1
