# generated using pymatgen
data_Al2Cr3(SiO4)3
_symmetry_space_group_name_H-M   'P 1'
_cell_length_a   10.17751235
_cell_length_b   10.17751194
_cell_length_c   10.17751205
_cell_angle_alpha   109.47122088
_cell_angle_beta   109.47122005
_cell_angle_gamma   109.47122204
_symmetry_Int_Tables_number   1
_chemical_formula_structural   Al2Cr3(SiO4)3
_chemical_formula_sum   'Al8 Cr12 Si12 O48'
_cell_volume   811.52702556
_cell_formula_units_Z   4
loop_
 _symmetry_equiv_pos_site_id
 _symmetry_equiv_pos_as_xyz
  1  'x, y, z'
loop_
 _atom_site_type_symbol
 _atom_site_label
 _atom_site_symmetry_multiplicity
 _atom_site_fract_x
 _atom_site_fract_y
 _atom_site_fract_z
 _atom_site_occupancy
  Al  Al0  1  0.500000  0.000000  0.000000  1
  Al  Al1  1  0.000000  0.000000  0.000000  1
  Al  Al2  1  0.000000  0.500000  0.000000  1
  Al  Al3  1  0.000000  0.000000  0.500000  1
  Al  Al4  1  0.000000  0.500000  0.500001  1
  Al  Al5  1  0.500000  0.000000  0.500001  1
  Al  Al6  1  0.500000  0.500000  0.000000  1
  Al  Al7  1  0.500000  0.500000  0.500000  1
  Cr  Cr8  1  0.250000  0.875001  0.625000  1
  Cr  Cr9  1  0.875000  0.625000  0.250000  1
  Cr  Cr10  1  0.625001  0.875001  0.750001  1
  Cr  Cr11  1  0.875001  0.750001  0.625001  1
  Cr  Cr12  1  0.625000  0.250000  0.875000  1
  Cr  Cr13  1  0.750000  0.625000  0.875000  1
  Cr  Cr14  1  0.750000  0.125000  0.375000  1
  Cr  Cr15  1  0.125000  0.375000  0.750000  1
  Cr  Cr16  1  0.375000  0.125000  0.250000  1
  Cr  Cr17  1  0.125000  0.250000  0.375000  1
  Cr  Cr18  1  0.375000  0.750001  0.125000  1
  Cr  Cr19  1  0.250000  0.375000  0.125000  1
  Si  Si20  1  0.250000  0.125000  0.875000  1
  Si  Si21  1  0.875000  0.250000  0.125000  1
  Si  Si22  1  0.625000  0.750001  0.375000  1
  Si  Si23  1  0.250000  0.625000  0.375001  1
  Si  Si24  1  0.375000  0.625000  0.750000  1
  Si  Si25  1  0.750000  0.375000  0.625000  1
  Si  Si26  1  0.875000  0.125000  0.750000  1
  Si  Si27  1  0.125000  0.750001  0.875000  1
  Si  Si28  1  0.125000  0.875001  0.250000  1
  Si  Si29  1  0.625000  0.375000  0.250000  1
  Si  Si30  1  0.375000  0.250000  0.625000  1
  Si  Si31  1  0.750000  0.875001  0.125000  1
  O  O32  1  0.302355  0.488228  0.379208  1
  O  O33  1  0.011772  0.314126  0.890980  1
  O  O34  1  0.120792  0.609020  0.923147  1
  O  O35  1  0.197644  0.576853  0.185874  1
  O  O36  1  0.197644  0.120791  0.011771  1
  O  O37  1  0.576852  0.185873  0.197644  1
  O  O38  1  0.609019  0.185873  0.488228  1
  O  O39  1  0.185874  0.197644  0.576854  1
  O  O40  1  0.890981  0.379208  0.576853  1
  O  O41  1  0.314127  0.923147  0.302356  1
  O  O42  1  0.923147  0.302356  0.314127  1
  O  O43  1  0.011772  0.197644  0.120791  1
  O  O44  1  0.185874  0.488228  0.609020  1
  O  O45  1  0.576853  0.890981  0.379209  1
  O  O46  1  0.120791  0.011771  0.197644  1
  O  O47  1  0.488228  0.609020  0.185873  1
  O  O48  1  0.379208  0.576853  0.890980  1
  O  O49  1  0.890980  0.011771  0.314126  1
  O  O50  1  0.609019  0.923147  0.120792  1
  O  O51  1  0.109019  0.620791  0.423147  1
  O  O52  1  0.488228  0.379208  0.302355  1
  O  O53  1  0.379208  0.302356  0.488228  1
  O  O54  1  0.314127  0.890981  0.011772  1
  O  O55  1  0.302355  0.314126  0.923146  1
  O  O56  1  0.697644  0.511771  0.620792  1
  O  O57  1  0.988228  0.685873  0.109019  1
  O  O58  1  0.879209  0.390981  0.076853  1
  O  O59  1  0.802356  0.423147  0.814127  1
  O  O60  1  0.802355  0.879209  0.988229  1
  O  O61  1  0.423147  0.814126  0.802355  1
  O  O62  1  0.390981  0.814126  0.511771  1
  O  O63  1  0.814127  0.802356  0.423147  1
  O  O64  1  0.697644  0.685873  0.076853  1
  O  O65  1  0.685874  0.109020  0.988228  1
  O  O66  1  0.620791  0.697645  0.511772  1
  O  O67  1  0.511772  0.620791  0.697644  1
  O  O68  1  0.076853  0.879209  0.390980  1
  O  O69  1  0.390980  0.076852  0.879208  1
  O  O70  1  0.109020  0.988228  0.685873  1
  O  O71  1  0.620792  0.423147  0.109019  1
  O  O72  1  0.511772  0.390981  0.814127  1
  O  O73  1  0.879209  0.988228  0.802356  1
  O  O74  1  0.423148  0.109020  0.620792  1
  O  O75  1  0.814126  0.511771  0.390981  1
  O  O76  1  0.988228  0.802356  0.879209  1
  O  O77  1  0.076854  0.697645  0.685874  1
  O  O78  1  0.685873  0.076852  0.697644  1
  O  O79  1  0.923147  0.120791  0.609019  1
