# generated using pymatgen
data_MgTiO2
_symmetry_space_group_name_H-M   'P 1'
_cell_length_a   2.88320355
_cell_length_b   8.05016695
_cell_length_c   8.10533609
_cell_angle_alpha   78.12382836
_cell_angle_beta   79.75692541
_cell_angle_gamma   79.69084528
_symmetry_Int_Tables_number   1
_chemical_formula_structural   MgTiO2
_chemical_formula_sum   'Mg4 Ti4 O8'
_cell_volume   179.17535303
_cell_formula_units_Z   4
loop_
 _symmetry_equiv_pos_site_id
 _symmetry_equiv_pos_as_xyz
  1  'x, y, z'
loop_
 _atom_site_type_symbol
 _atom_site_label
 _atom_site_symmetry_multiplicity
 _atom_site_fract_x
 _atom_site_fract_y
 _atom_site_fract_z
 _atom_site_occupancy
  Mg  Mg0  1  0.319116  0.126963  0.233890  1
  Mg  Mg1  1  0.676362  0.852806  0.794359  1
  Mg  Mg2  1  0.020033  0.828150  0.127022  1
  Mg  Mg3  1  0.975780  0.151856  0.901172  1
  Ti  Ti4  1  0.610820  0.212748  0.569266  1
  Ti  Ti5  1  0.181406  0.481478  0.156400  1
  Ti  Ti6  1  0.815343  0.498310  0.871643  1
  Ti  Ti7  1  0.385050  0.767339  0.458981  1
  O  O8  1  0.841764  0.684693  0.628617  1
  O  O9  1  0.453127  0.324503  0.773171  1
  O  O10  1  0.543044  0.655699  0.255201  1
  O  O11  1  0.154352  0.295223  0.399483  1
  O  O12  1  0.146719  0.028904  0.679589  1
  O  O13  1  0.805224  0.292806  0.097462  1
  O  O14  1  0.848996  0.950936  0.348700  1
  O  O15  1  0.191140  0.686921  0.930664  1
