# generated using pymatgen
data_BaZnCuF7
_symmetry_space_group_name_H-M   'P 1'
_cell_length_a   5.61481690
_cell_length_b   9.62969662
_cell_length_c   9.97958292
_cell_angle_alpha   90.00000000
_cell_angle_beta   90.00000000
_cell_angle_gamma   93.26757545
_symmetry_Int_Tables_number   1
_chemical_formula_structural   BaZnCuF7
_chemical_formula_sum   'Ba4 Zn4 Cu4 F28'
_cell_volume   538.70866131
_cell_formula_units_Z   4
loop_
 _symmetry_equiv_pos_site_id
 _symmetry_equiv_pos_as_xyz
  1  'x, y, z'
loop_
 _atom_site_type_symbol
 _atom_site_label
 _atom_site_symmetry_multiplicity
 _atom_site_fract_x
 _atom_site_fract_y
 _atom_site_fract_z
 _atom_site_occupancy
  Ba  Ba0  1  0.259490  0.499500  0.317900  1
  Ba  Ba1  1  0.740510  0.000500  0.817900  1
  Ba  Ba2  1  0.740510  0.500500  0.682100  1
  Ba  Ba3  1  0.259490  0.999500  0.182100  1
  Zn  Zn4  1  0.697256  0.810804  0.398642  1
  Zn  Zn5  1  0.302744  0.689196  0.898642  1
  Zn  Zn6  1  0.697256  0.310804  0.101358  1
  Zn  Zn7  1  0.302744  0.189196  0.601358  1
  Cu  Cu8  1  0.194386  0.812327  0.612828  1
  Cu  Cu9  1  0.805614  0.187673  0.387172  1
  Cu  Cu10  1  0.194386  0.312327  0.887172  1
  Cu  Cu11  1  0.805614  0.687673  0.112828  1
  F  F12  1  0.107925  0.122155  0.443107  1
  F  F13  1  0.360664  0.370484  0.048791  1
  F  F14  1  0.474716  0.751785  0.707317  1
  F  F15  1  0.525284  0.248215  0.292683  1
  F  F16  1  0.888574  0.365733  0.457628  1
  F  F17  1  0.260482  0.497876  0.808253  1
  F  F18  1  0.022113  0.752682  0.775889  1
  F  F19  1  0.111426  0.134267  0.957628  1
  F  F20  1  0.360664  0.870484  0.451209  1
  F  F21  1  0.525284  0.748215  0.207317  1
  F  F22  1  0.107925  0.622155  0.056893  1
  F  F23  1  0.892075  0.877845  0.556893  1
  F  F24  1  0.977887  0.747318  0.275889  1
  F  F25  1  0.386150  0.876633  0.957581  1
  F  F26  1  0.111426  0.634267  0.542372  1
  F  F27  1  0.888574  0.865733  0.042372  1
  F  F28  1  0.977887  0.247318  0.224111  1
  F  F29  1  0.892075  0.377845  0.943107  1
  F  F30  1  0.613850  0.623367  0.457581  1
  F  F31  1  0.639336  0.629516  0.951209  1
  F  F32  1  0.613850  0.123367  0.042419  1
  F  F33  1  0.022113  0.252682  0.724111  1
  F  F34  1  0.386150  0.376633  0.542419  1
  F  F35  1  0.739518  0.002124  0.308253  1
  F  F36  1  0.739518  0.502124  0.191747  1
  F  F37  1  0.260482  0.997876  0.691747  1
  F  F38  1  0.639336  0.129516  0.548791  1
  F  F39  1  0.474716  0.251785  0.792683  1
