# generated using pymatgen
data_CaW2O7
_symmetry_space_group_name_H-M   'P 1'
_cell_length_a   7.11770501
_cell_length_b   6.84438521
_cell_length_c   9.44669682
_cell_angle_alpha   117.61988425
_cell_angle_beta   90.00000000
_cell_angle_gamma   90.00000000
_symmetry_Int_Tables_number   1
_chemical_formula_structural   CaW2O7
_chemical_formula_sum   'Ca2 W4 O14'
_cell_volume   407.76418531
_cell_formula_units_Z   2
loop_
 _symmetry_equiv_pos_site_id
 _symmetry_equiv_pos_as_xyz
  1  'x, y, z'
loop_
 _atom_site_type_symbol
 _atom_site_label
 _atom_site_symmetry_multiplicity
 _atom_site_fract_x
 _atom_site_fract_y
 _atom_site_fract_z
 _atom_site_occupancy
  Ca  Ca0  1  0.871511  0.518938  0.640084  1
  Ca  Ca1  1  0.371511  0.481062  0.359915  1
  W  W2  1  0.848732  0.315321  0.208047  1
  W  W3  1  0.348732  0.684679  0.791953  1
  W  W4  1  0.320724  0.875298  0.204367  1
  W  W5  1  0.820724  0.124702  0.795633  1
  O  O6  1  0.647207  0.028610  0.647664  1
  O  O7  1  0.147206  0.971390  0.352336  1
  O  O8  1  0.217724  0.549243  0.602325  1
  O  O9  1  0.717724  0.450757  0.397675  1
  O  O10  1  0.971305  0.299560  0.750286  1
  O  O11  1  0.471305  0.700440  0.249714  1
  O  O12  1  0.575878  0.555503  0.754163  1
  O  O13  1  0.075878  0.444497  0.245837  1
  O  O14  1  0.942792  0.884978  0.783113  1
  O  O15  1  0.442792  0.115022  0.216887  1
  O  O16  1  0.738008  0.297538  0.016159  1
  O  O17  1  0.238008  0.702462  0.983841  1
  O  O18  1  0.891177  0.044014  0.166790  1
  O  O19  1  0.391177  0.955986  0.833210  1
