# generated using pymatgen
data_Sr2GaCo2O7
_symmetry_space_group_name_H-M   'P 1'
_cell_length_a   5.17601301
_cell_length_b   5.23867684
_cell_length_c   12.46532931
_cell_angle_alpha   102.13104466
_cell_angle_beta   101.92624518
_cell_angle_gamma   89.97707508
_symmetry_Int_Tables_number   1
_chemical_formula_structural   Sr2GaCo2O7
_chemical_formula_sum   'Sr4 Ga2 Co4 O14'
_cell_volume   322.99503344
_cell_formula_units_Z   2
loop_
 _symmetry_equiv_pos_site_id
 _symmetry_equiv_pos_as_xyz
  1  'x, y, z'
loop_
 _atom_site_type_symbol
 _atom_site_label
 _atom_site_symmetry_multiplicity
 _atom_site_fract_x
 _atom_site_fract_y
 _atom_site_fract_z
 _atom_site_occupancy
  Sr  Sr0  1  0.155913  0.158476  0.299416  1
  Sr  Sr1  1  0.857130  0.843587  0.700233  1
  Sr  Sr2  1  0.655611  0.644348  0.299171  1
  Sr  Sr3  1  0.356643  0.359585  0.700509  1
  Ga  Ga4  1  0.201682  0.821117  0.499616  1
  Ga  Ga5  1  0.700806  0.180942  0.498531  1
  Co  Co6  1  0.444818  0.939787  0.875777  1
  Co  Co7  1  0.067115  0.561507  0.121244  1
  Co  Co8  1  0.947285  0.440914  0.881666  1
  Co  Co9  1  0.571824  0.064023  0.129619  1
  O  O10  1  0.808269  0.303738  0.131473  1
  O  O11  1  0.832447  0.841354  0.498978  1
  O  O12  1  0.308909  0.330881  0.134354  1
  O  O13  1  0.844454  0.351302  0.644501  1
  O  O14  1  0.691200  0.183050  0.857505  1
  O  O15  1  0.196516  0.177647  0.863735  1
  O  O16  1  0.333172  0.162350  0.499186  1
  O  O17  1  0.181561  0.682303  0.865661  1
  O  O18  1  0.683084  0.693025  0.873092  1
  O  O19  1  0.343670  0.799263  0.646110  1
  O  O20  1  0.195929  0.652285  0.351823  1
  O  O21  1  0.693368  0.198692  0.348262  1
  O  O22  1  0.840862  0.807160  0.141368  1
  O  O23  1  0.339378  0.833183  0.140843  1
