# generated using pymatgen
data_CaCr4(CuO4)3
_symmetry_space_group_name_H-M   'P 1'
_cell_length_a   6.39373941
_cell_length_b   6.39381537
_cell_length_c   6.39391075
_cell_angle_alpha   109.47080550
_cell_angle_beta   109.46301807
_cell_angle_gamma   109.47952071
_symmetry_Int_Tables_number   1
_chemical_formula_structural   CaCr4(CuO4)3
_chemical_formula_sum   'Ca1 Cr4 Cu3 O12'
_cell_volume   201.21548408
_cell_formula_units_Z   1
loop_
 _symmetry_equiv_pos_site_id
 _symmetry_equiv_pos_as_xyz
  1  'x, y, z'
loop_
 _atom_site_type_symbol
 _atom_site_label
 _atom_site_symmetry_multiplicity
 _atom_site_fract_x
 _atom_site_fract_y
 _atom_site_fract_z
 _atom_site_occupancy
  Ca  Ca0  1  0.000028  0.000003  0.000010  1
  Cr  Cr1  1  0.000014  0.000004  0.500012  1
  Cr  Cr2  1  -0.000006  0.499992  0.999989  1
  Cr  Cr3  1  0.499998  0.500003  0.500006  1
  Cr  Cr4  1  0.500009  0.000003  0.000003  1
  Cu  Cu5  1  0.500006  0.500007  0.000007  1
  Cu  Cu6  1  0.999988  0.499990  0.499995  1
  Cu  Cu7  1  0.499994  0.999994  0.499990  1
  O  O8  1  0.830862  0.312051  0.142867  1
  O  O9  1  0.169126  0.687944  0.857121  1
  O  O10  1  0.830860  0.687997  0.518792  1
  O  O11  1  0.312007  0.481201  0.169231  1
  O  O12  1  0.481205  0.169188  0.311999  1
  O  O13  1  0.142843  0.830874  0.312001  1
  O  O14  1  0.688036  0.857212  0.169170  1
  O  O15  1  0.518784  0.830809  0.687992  1
  O  O16  1  0.169135  0.312004  0.481203  1
  O  O17  1  0.687991  0.518807  0.830771  1
  O  O18  1  0.857147  0.169117  0.687993  1
  O  O19  1  0.311975  0.142802  0.830851  1
