# generated using pymatgen
data_Ca2Cr2O5
_symmetry_space_group_name_H-M   'P 1'
_cell_length_a   3.92933556
_cell_length_b   5.43198665
_cell_length_c   10.27677717
_cell_angle_alpha   89.99730085
_cell_angle_beta   90.00036235
_cell_angle_gamma   90.00025408
_symmetry_Int_Tables_number   1
_chemical_formula_structural   Ca2Cr2O5
_chemical_formula_sum   'Ca4 Cr4 O10'
_cell_volume   219.34854206
_cell_formula_units_Z   2
loop_
 _symmetry_equiv_pos_site_id
 _symmetry_equiv_pos_as_xyz
  1  'x, y, z'
loop_
 _atom_site_type_symbol
 _atom_site_label
 _atom_site_symmetry_multiplicity
 _atom_site_fract_x
 _atom_site_fract_y
 _atom_site_fract_z
 _atom_site_occupancy
  Ca  Ca0  1  0.499996  0.207168  0.877956  1
  Ca  Ca1  1  0.499999  0.793022  0.122099  1
  Ca  Ca2  1  0.499991  0.707012  0.622041  1
  Ca  Ca3  1  0.499987  0.292836  0.377928  1
  Cr  Cr4  1  0.000007  0.234145  0.631508  1
  Cr  Cr5  1  0.000052  0.765808  0.368603  1
  Cr  Cr6  1  0.000106  0.265924  0.131383  1
  Cr  Cr7  1  0.999929  0.734187  0.868574  1
  O  O8  1  0.999991  0.499876  0.499989  1
  O  O9  1  0.999987  0.100787  0.295394  1
  O  O10  1  0.999994  0.600867  0.204556  1
  O  O11  1  0.999991  0.399224  0.795473  1
  O  O12  1  0.500022  0.291283  0.107283  1
  O  O13  1  0.499975  0.708738  0.892727  1
  O  O14  1  0.999988  0.899122  0.704526  1
  O  O15  1  0.499995  0.208703  0.607295  1
  O  O16  1  0.999991  0.000051  0.999959  1
  O  O17  1  0.500008  0.791244  0.392707  1
