# generated using pymatgen
data_Ca3V2(BiO6)2
_symmetry_space_group_name_H-M   'P 1'
_cell_length_a   5.49920429
_cell_length_b   7.25376461
_cell_length_c   7.57785623
_cell_angle_alpha   102.78522316
_cell_angle_beta   92.74090511
_cell_angle_gamma   90.09844463
_symmetry_Int_Tables_number   1
_chemical_formula_structural   Ca3V2(BiO6)2
_chemical_formula_sum   'Ca3 V2 Bi2 O12'
_cell_volume   294.42487044
_cell_formula_units_Z   1
loop_
 _symmetry_equiv_pos_site_id
 _symmetry_equiv_pos_as_xyz
  1  'x, y, z'
loop_
 _atom_site_type_symbol
 _atom_site_label
 _atom_site_symmetry_multiplicity
 _atom_site_fract_x
 _atom_site_fract_y
 _atom_site_fract_z
 _atom_site_occupancy
  Ca  Ca0  1  0.758706  0.714012  0.913062  1
  Ca  Ca1  1  0.261015  0.280059  0.072325  1
  Ca  Ca2  1  0.764820  0.078517  0.301195  1
  V  V3  1  0.314815  0.807362  0.193993  1
  V  V4  1  0.792015  0.211696  0.806575  1
  Bi  Bi5  1  0.734608  0.589679  0.416642  1
  Bi  Bi6  1  0.244479  0.392990  0.575469  1
  O  O7  1  0.012323  0.352414  0.327533  1
  O  O8  1  0.992577  0.805602  0.200965  1
  O  O9  1  0.442377  0.590005  0.097837  1
  O  O10  1  0.929690  0.414905  0.924368  1
  O  O11  1  0.497450  0.324915  0.361555  1
  O  O12  1  0.424658  0.967986  0.076827  1
  O  O13  1  0.000925  0.618642  0.651721  1
  O  O14  1  0.512782  0.604008  0.659111  1
  O  O15  1  0.868630  0.055640  0.941387  1
  O  O16  1  0.468534  0.241790  0.779535  1
  O  O17  1  0.955426  0.162333  0.602834  1
  O  O18  1  0.469707  0.878224  0.401658  1
