# generated using pymatgen
data_CaCoO2
_symmetry_space_group_name_H-M   'P 1'
_cell_length_a   3.24531266
_cell_length_b   9.17391252
_cell_length_c   8.09068250
_cell_angle_alpha   84.50591330
_cell_angle_beta   89.94929116
_cell_angle_gamma   110.67043739
_symmetry_Int_Tables_number   1
_chemical_formula_structural   CaCoO2
_chemical_formula_sum   'Ca4 Co4 O8'
_cell_volume   224.18041523
_cell_formula_units_Z   4
loop_
 _symmetry_equiv_pos_site_id
 _symmetry_equiv_pos_as_xyz
  1  'x, y, z'
loop_
 _atom_site_type_symbol
 _atom_site_label
 _atom_site_symmetry_multiplicity
 _atom_site_fract_x
 _atom_site_fract_y
 _atom_site_fract_z
 _atom_site_occupancy
  Ca  Ca0  1  0.298168  0.038537  0.303799  1
  Ca  Ca1  1  0.698002  0.941401  0.724401  1
  Ca  Ca2  1  0.965302  0.704070  0.106670  1
  Ca  Ca3  1  0.030736  0.275892  0.921534  1
  Co  Co4  1  0.502283  0.245728  0.603568  1
  Co  Co5  1  0.112082  0.351740  0.276732  1
  Co  Co6  1  0.883926  0.628157  0.751465  1
  Co  Co7  1  0.493777  0.734137  0.424643  1
  O  O8  1  0.064088  0.805511  0.555454  1
  O  O9  1  0.664306  0.410737  0.745032  1
  O  O10  1  0.331537  0.569244  0.283151  1
  O  O11  1  0.931904  0.174348  0.472731  1
  O  O12  1  0.350492  0.094399  0.812800  1
  O  O13  1  0.542783  0.282834  0.146858  1
  O  O14  1  0.645691  0.885494  0.215458  1
  O  O15  1  0.453200  0.697107  0.881325  1
