# generated using pymatgen
data_AlMo(WO4)2
_symmetry_space_group_name_H-M   'P 1'
_cell_length_a   5.17915694
_cell_length_b   5.65901271
_cell_length_c   6.44382383
_cell_angle_alpha   98.75310426
_cell_angle_beta   124.14243151
_cell_angle_gamma   95.72316563
_symmetry_Int_Tables_number   1
_chemical_formula_structural   AlMo(WO4)2
_chemical_formula_sum   'Al1 Mo1 W2 O8'
_cell_volume   150.48116977
_cell_formula_units_Z   1
loop_
 _symmetry_equiv_pos_site_id
 _symmetry_equiv_pos_as_xyz
  1  'x, y, z'
loop_
 _atom_site_type_symbol
 _atom_site_label
 _atom_site_symmetry_multiplicity
 _atom_site_fract_x
 _atom_site_fract_y
 _atom_site_fract_z
 _atom_site_occupancy
  Al  Al0  1  0.594667  0.785506  0.150969  1
  Mo  Mo1  1  0.127505  0.210005  0.092220  1
  W  W2  1  0.900526  0.398212  0.577597  1
  W  W3  1  0.368363  0.042684  0.619923  1
  O  O4  1  0.188539  0.667960  0.848463  1
  O  O5  1  0.552250  0.516168  0.285674  1
  O  O6  1  0.178093  0.164520  0.789807  1
  O  O7  1  0.534515  0.040963  0.344336  1
  O  O8  1  0.686061  0.933672  0.930685  1
  O  O9  1  0.029610  0.790752  0.356150  1
  O  O10  1  0.102531  0.286883  0.407679  1
  O  O11  1  0.733340  0.341171  0.792593  1
