# generated using pymatgen
data_Y2Cu3(WO4)6
_symmetry_space_group_name_H-M   'P 1'
_cell_length_a   15.10272813
_cell_length_b   6.20211418
_cell_length_c   6.05966530
_cell_angle_alpha   109.04210310
_cell_angle_beta   115.15105550
_cell_angle_gamma   90.85550612
_symmetry_Int_Tables_number   1
_chemical_formula_structural   Y2Cu3(WO4)6
_chemical_formula_sum   'Y2 Cu3 W6 O24'
_cell_volume   477.78409644
_cell_formula_units_Z   1
loop_
 _symmetry_equiv_pos_site_id
 _symmetry_equiv_pos_as_xyz
  1  'x, y, z'
loop_
 _atom_site_type_symbol
 _atom_site_label
 _atom_site_symmetry_multiplicity
 _atom_site_fract_x
 _atom_site_fract_y
 _atom_site_fract_z
 _atom_site_occupancy
  Y  Y0  1  0.211842  0.714971  0.103110  1
  Y  Y1  1  0.871080  0.731121  0.095447  1
  Cu  Cu2  1  0.043302  0.227132  0.102627  1
  Cu  Cu3  1  0.397365  0.265885  0.127006  1
  Cu  Cu4  1  0.686120  0.182706  0.073253  1
  W  W5  1  0.294020  0.397627  0.593297  1
  W  W6  1  0.618625  0.392226  0.597878  1
  W  W7  1  0.954973  0.396277  0.588283  1
  W  W8  1  0.127984  0.049715  0.610721  1
  W  W9  1  0.464781  0.054081  0.601780  1
  W  W10  1  0.789060  0.047613  0.605679  1
  O  O11  1  0.047349  0.654072  0.825143  1
  O  O12  1  0.365641  0.670259  0.806895  1
  O  O13  1  0.710857  0.657579  0.817230  1
  O  O14  1  0.193871  0.471582  0.322160  1
  O  O15  1  0.524530  0.471597  0.340756  1
  O  O16  1  0.873000  0.502316  0.340715  1
  O  O17  1  0.052644  0.200788  0.798937  1
  O  O18  1  0.385028  0.203927  0.792220  1
  O  O19  1  0.717374  0.194044  0.805772  1
  O  O20  1  0.190691  0.038878  0.388266  1
  O  O21  1  0.525662  0.057051  0.391822  1
  O  O22  1  0.859992  0.061777  0.398332  1
  O  O23  1  0.209591  0.943042  0.858143  1
  O  O24  1  0.558823  0.975175  0.859182  1
  O  O25  1  0.887817  0.972342  0.875842  1
  O  O26  1  0.035515  0.792255  0.373618  1
  O  O27  1  0.372024  0.789176  0.382519  1
  O  O28  1  0.716802  0.775917  0.390325  1
  O  O29  1  0.030736  0.245900  0.400688  1
  O  O30  1  0.365682  0.252615  0.393229  1
  O  O31  1  0.698186  0.243125  0.407434  1
  O  O32  1  0.223407  0.384056  0.801444  1
  O  O33  1  0.557505  0.389005  0.807600  1
  O  O34  1  0.892669  0.406792  0.811456  1
