# generated using pymatgen
data_Y2(CuO2)3
_symmetry_space_group_name_H-M   'P 1'
_cell_length_a   10.14460303
_cell_length_b   3.55995527
_cell_length_c   12.09404689
_cell_angle_alpha   89.92688288
_cell_angle_beta   90.38619602
_cell_angle_gamma   121.95446323
_symmetry_Int_Tables_number   1
_chemical_formula_structural   Y2(CuO2)3
_chemical_formula_sum   'Y4 Cu6 O12'
_cell_volume   370.57470586
_cell_formula_units_Z   2
loop_
 _symmetry_equiv_pos_site_id
 _symmetry_equiv_pos_as_xyz
  1  'x, y, z'
loop_
 _atom_site_type_symbol
 _atom_site_label
 _atom_site_symmetry_multiplicity
 _atom_site_fract_x
 _atom_site_fract_y
 _atom_site_fract_z
 _atom_site_occupancy
  Y  Y0  1  0.012934  0.026777  0.007116  1
  Y  Y1  1  0.639356  0.962789  0.989321  1
  Y  Y2  1  0.320449  0.978037  0.505514  1
  Y  Y3  1  0.694114  0.040973  0.489581  1
  Cu  Cu4  1  0.235061  0.351757  0.750493  1
  Cu  Cu5  1  0.578937  0.369670  0.735077  1
  Cu  Cu6  1  0.884320  0.330385  0.764688  1
  Cu  Cu7  1  0.095324  0.642156  0.252199  1
  Cu  Cu8  1  0.448757  0.674211  0.263472  1
  Cu  Cu9  1  0.754746  0.634531  0.235599  1
  O  O10  1  0.121343  0.671638  0.392643  1
  O  O11  1  0.440585  0.659345  0.411533  1
  O  O12  1  0.751115  0.627271  0.383626  1
  O  O13  1  0.206890  0.313900  0.890077  1
  O  O14  1  0.581789  0.376494  0.883302  1
  O  O15  1  0.892016  0.344624  0.913171  1
  O  O16  1  0.078495  0.625329  0.108348  1
  O  O17  1  0.460106  0.693728  0.120848  1
  O  O18  1  0.764727  0.651408  0.085533  1
  O  O19  1  0.255995  0.380012  0.607175  1
  O  O20  1  0.568787  0.351753  0.584940  1
  O  O21  1  0.872735  0.308416  0.622393  1
