# generated using pymatgen
data_ZnCu3(BiO3)4
_symmetry_space_group_name_H-M   'P 1'
_cell_length_a   7.09919666
_cell_length_b   7.09926399
_cell_length_c   7.09898871
_cell_angle_alpha   109.48458436
_cell_angle_beta   109.49054180
_cell_angle_gamma   109.43694219
_symmetry_Int_Tables_number   1
_chemical_formula_structural   ZnCu3(BiO3)4
_chemical_formula_sum   'Zn1 Cu3 Bi4 O12'
_cell_volume   275.42641096
_cell_formula_units_Z   1
loop_
 _symmetry_equiv_pos_site_id
 _symmetry_equiv_pos_as_xyz
  1  'x, y, z'
loop_
 _atom_site_type_symbol
 _atom_site_label
 _atom_site_symmetry_multiplicity
 _atom_site_fract_x
 _atom_site_fract_y
 _atom_site_fract_z
 _atom_site_occupancy
  Zn  Zn0  1  0.000000  -0.000000  -0.000000  1
  Cu  Cu1  1  0.500000  0.500000  -0.000000  1
  Cu  Cu2  1  0.000000  0.500000  0.500000  1
  Cu  Cu3  1  0.500000  -0.000000  0.500000  1
  Bi  Bi4  1  0.000000  -0.000000  0.500000  1
  Bi  Bi5  1  0.000000  0.500000  -0.000000  1
  Bi  Bi6  1  0.500000  0.500000  0.500000  1
  Bi  Bi7  1  0.500000  -0.000000  -0.000000  1
  O  O8  1  0.845594  0.322304  0.167895  1
  O  O9  1  0.154406  0.677696  0.832105  1
  O  O10  1  0.845543  0.677649  0.523197  1
  O  O11  1  0.322531  0.476845  0.154280  1
  O  O12  1  0.476963  0.154396  0.322566  1
  O  O13  1  0.168159  0.845598  0.322565  1
  O  O14  1  0.677429  0.831764  0.154290  1
  O  O15  1  0.523038  0.845604  0.677434  1
  O  O16  1  0.154457  0.322351  0.476804  1
  O  O17  1  0.677469  0.523155  0.845720  1
  O  O18  1  0.831840  0.154402  0.677435  1
  O  O19  1  0.322571  0.168236  0.845710  1
