# generated using pymatgen
data_CaNi2S5
_symmetry_space_group_name_H-M   'P 1'
_cell_length_a   3.92711849
_cell_length_b   6.83794886
_cell_length_c   13.11459942
_cell_angle_alpha   90.01457211
_cell_angle_beta   90.00034690
_cell_angle_gamma   90.00011708
_symmetry_Int_Tables_number   1
_chemical_formula_structural   CaNi2S5
_chemical_formula_sum   'Ca2 Ni4 S10'
_cell_volume   352.17203702
_cell_formula_units_Z   2
loop_
 _symmetry_equiv_pos_site_id
 _symmetry_equiv_pos_as_xyz
  1  'x, y, z'
loop_
 _atom_site_type_symbol
 _atom_site_label
 _atom_site_symmetry_multiplicity
 _atom_site_fract_x
 _atom_site_fract_y
 _atom_site_fract_z
 _atom_site_occupancy
  Ca  Ca0  1  0.749999  0.879392  0.249981  1
  Ca  Ca1  1  0.250000  0.120615  0.750063  1
  Ni  Ni2  1  0.250000  0.444937  0.101216  1
  Ni  Ni3  1  0.749999  0.554966  0.898770  1
  Ni  Ni4  1  0.750002  0.555133  0.601199  1
  Ni  Ni5  1  0.250001  0.445024  0.398780  1
  S  S6  1  0.750010  0.407197  0.750007  1
  S  S7  1  0.249996  0.592797  0.249959  1
  S  S8  1  0.749999  0.595519  0.064931  1
  S  S9  1  0.250000  0.404279  0.935037  1
  S  S10  1  0.750001  0.595506  0.435095  1
  S  S11  1  0.250001  0.404654  0.564848  1
  S  S12  1  0.250000  0.141416  0.329860  1
  S  S13  1  0.749998  0.858564  0.670185  1
  S  S14  1  0.749989  0.858552  0.829866  1
  S  S15  1  0.249999  0.141449  0.170201  1
