# generated using pymatgen
data_Ba2YNi2F11
_symmetry_space_group_name_H-M   'P 1'
_cell_length_a   7.86001283
_cell_length_b   7.86001199
_cell_length_c   13.50238930
_cell_angle_alpha   90.00000000
_cell_angle_beta   90.00000000
_cell_angle_gamma   120.00000472
_symmetry_Int_Tables_number   1
_chemical_formula_structural   Ba2YNi2F11
_chemical_formula_sum   'Ba6 Y3 Ni6 F33'
_cell_volume   722.41657146
_cell_formula_units_Z   3
loop_
 _symmetry_equiv_pos_site_id
 _symmetry_equiv_pos_as_xyz
  1  'x, y, z'
loop_
 _atom_site_type_symbol
 _atom_site_label
 _atom_site_symmetry_multiplicity
 _atom_site_fract_x
 _atom_site_fract_y
 _atom_site_fract_z
 _atom_site_occupancy
  Ba  Ba0  1  0.552917  0.187581  0.664296  1
  Ba  Ba1  1  0.186291  0.529117  0.817236  1
  Ba  Ba2  1  0.634663  0.447083  0.997629  1
  Ba  Ba3  1  0.470883  0.657173  0.483902  1
  Ba  Ba4  1  0.342827  0.813709  0.150569  1
  Ba  Ba5  1  0.812419  0.365337  0.330962  1
  Y  Y6  1  0.126548  0.001821  0.894811  1
  Y  Y7  1  0.875275  0.873452  0.228144  1
  Y  Y8  1  0.998179  0.124725  0.561477  1
  Ni  Ni9  1  0.633567  0.996859  0.882603  1
  Ni  Ni10  1  0.785006  0.736710  0.718578  1
  Ni  Ni11  1  0.263290  0.048296  0.385244  1
  Ni  Ni12  1  0.363292  0.366433  0.215936  1
  Ni  Ni13  1  0.951704  0.214994  0.051911  1
  Ni  Ni14  1  0.003141  0.636708  0.549269  1
  F  F15  1  0.665176  0.092858  0.023745  1
  F  F16  1  0.513550  0.722445  0.931633  1
  F  F17  1  0.427682  0.334824  0.357078  1
  F  F18  1  0.083569  0.422979  0.497236  1
  F  F19  1  0.565498  0.298599  0.176801  1
  F  F20  1  0.956809  0.655132  0.193056  1
  F  F21  1  0.577021  0.660590  0.163903  1
  F  F22  1  0.344868  0.301676  0.859723  1
  F  F23  1  0.733100  0.434502  0.510134  1
  F  F24  1  0.242934  0.333630  0.078711  1
  F  F25  1  0.339410  0.916431  0.830570  1
  F  F26  1  0.907142  0.572318  0.690412  1
  F  F27  1  0.301514  0.015520  0.015665  1
  F  F28  1  0.014345  0.486659  0.010532  1
  F  F29  1  0.714008  0.698486  0.348998  1
  F  F30  1  0.277555  0.791104  0.598299  1
  F  F31  1  0.951976  0.152133  0.901561  1
  F  F32  1  0.090696  0.757066  0.412044  1
  F  F33  1  0.005176  0.071550  0.389311  1
  F  F34  1  0.984480  0.285992  0.682331  1
  F  F35  1  0.066374  0.994824  0.722645  1
  F  F36  1  0.513341  0.527685  0.677199  1
  F  F37  1  0.472315  0.985655  0.343865  1
  F  F38  1  0.200157  0.048024  0.234894  1
  F  F39  1  0.666370  0.909304  0.745378  1
  F  F40  1  0.701401  0.266900  0.843468  1
  F  F41  1  0.208896  0.486450  0.264966  1
  F  F42  1  0.865836  0.714073  0.862197  1
  F  F43  1  0.848238  0.134164  0.195530  1
  F  F44  1  0.928450  0.933626  0.055978  1
  F  F45  1  0.698324  0.043191  0.526389  1
  F  F46  1  0.847867  0.799843  0.568227  1
  F  F47  1  0.285927  0.151762  0.528863  1
