# generated using pymatgen
data_MgCu2(TeO4)2
_symmetry_space_group_name_H-M   'P 1'
_cell_length_a   6.28836134
_cell_length_b   8.74945464
_cell_length_c   13.39749756
_cell_angle_alpha   90.00000000
_cell_angle_beta   91.02887294
_cell_angle_gamma   90.00000000
_symmetry_Int_Tables_number   1
_chemical_formula_structural   MgCu2(TeO4)2
_chemical_formula_sum   'Mg4 Cu8 Te8 O32'
_cell_volume   737.00788521
_cell_formula_units_Z   4
loop_
 _symmetry_equiv_pos_site_id
 _symmetry_equiv_pos_as_xyz
  1  'x, y, z'
loop_
 _atom_site_type_symbol
 _atom_site_label
 _atom_site_symmetry_multiplicity
 _atom_site_fract_x
 _atom_site_fract_y
 _atom_site_fract_z
 _atom_site_occupancy
  Mg  Mg0  1  0.119088  0.155900  0.046854  1
  Mg  Mg1  1  0.880912  0.844100  0.953146  1
  Mg  Mg2  1  0.880912  0.655900  0.453146  1
  Mg  Mg3  1  0.119088  0.344100  0.546854  1
  Cu  Cu4  1  0.746250  0.182767  0.890636  1
  Cu  Cu5  1  0.393936  0.074274  0.622243  1
  Cu  Cu6  1  0.606064  0.925726  0.377757  1
  Cu  Cu7  1  0.253750  0.817233  0.109364  1
  Cu  Cu8  1  0.746250  0.317233  0.390636  1
  Cu  Cu9  1  0.393936  0.425726  0.122243  1
  Cu  Cu10  1  0.253750  0.682767  0.609364  1
  Cu  Cu11  1  0.606064  0.574274  0.877757  1
  Te  Te12  1  0.046846  0.445382  0.841433  1
  Te  Te13  1  0.046846  0.054618  0.341433  1
  Te  Te14  1  0.647129  0.097626  0.136654  1
  Te  Te15  1  0.953154  0.945382  0.658567  1
  Te  Te16  1  0.352871  0.902374  0.863346  1
  Te  Te17  1  0.352871  0.597626  0.363346  1
  Te  Te18  1  0.647129  0.402374  0.636654  1
  Te  Te19  1  0.953154  0.554618  0.158567  1
  O  O20  1  0.042755  0.249234  0.407148  1
  O  O21  1  0.689365  0.014081  0.607144  1
  O  O22  1  0.194327  0.557948  0.485837  1
  O  O23  1  0.805673  0.057948  0.014163  1
  O  O24  1  0.042755  0.250766  0.907148  1
  O  O25  1  0.957245  0.750766  0.592852  1
  O  O26  1  0.092273  0.127932  0.615845  1
  O  O27  1  0.518742  0.906230  0.156421  1
  O  O28  1  0.518742  0.593770  0.656421  1
  O  O29  1  0.277315  0.884752  0.664782  1
  O  O30  1  0.722685  0.384752  0.835218  1
  O  O31  1  0.481258  0.093770  0.843579  1
  O  O32  1  0.907727  0.872068  0.384155  1
  O  O33  1  0.927982  0.555201  0.296963  1
  O  O34  1  0.425554  0.285902  0.572953  1
  O  O35  1  0.425554  0.214098  0.072953  1
  O  O36  1  0.072018  0.055201  0.203037  1
  O  O37  1  0.481258  0.406230  0.343579  1
  O  O38  1  0.072018  0.444799  0.703037  1
  O  O39  1  0.805673  0.442052  0.514163  1
  O  O40  1  0.689365  0.485919  0.107144  1
  O  O41  1  0.722685  0.115248  0.335218  1
  O  O42  1  0.957245  0.749234  0.092852  1
  O  O43  1  0.092273  0.372068  0.115845  1
  O  O44  1  0.194327  0.942052  0.985837  1
  O  O45  1  0.574446  0.785902  0.927047  1
  O  O46  1  0.310635  0.985919  0.392856  1
  O  O47  1  0.310635  0.514081  0.892856  1
  O  O48  1  0.907727  0.627932  0.884155  1
  O  O49  1  0.574446  0.714098  0.427047  1
  O  O50  1  0.277315  0.615248  0.164782  1
  O  O51  1  0.927982  0.944799  0.796963  1
