# generated using pymatgen
data_ZnCr4(CuO4)3
_symmetry_space_group_name_H-M   'P 1'
_cell_length_a   6.36634010
_cell_length_b   6.36634000
_cell_length_c   6.36634075
_cell_angle_alpha   109.47121772
_cell_angle_beta   109.47121740
_cell_angle_gamma   109.47121675
_symmetry_Int_Tables_number   1
_chemical_formula_structural   ZnCr4(CuO4)3
_chemical_formula_sum   'Zn1 Cr4 Cu3 O12'
_cell_volume   198.63131028
_cell_formula_units_Z   1
loop_
 _symmetry_equiv_pos_site_id
 _symmetry_equiv_pos_as_xyz
  1  'x, y, z'
loop_
 _atom_site_type_symbol
 _atom_site_label
 _atom_site_symmetry_multiplicity
 _atom_site_fract_x
 _atom_site_fract_y
 _atom_site_fract_z
 _atom_site_occupancy
  Zn  Zn0  1  0.000000  -0.000000  0.000000  1
  Cr  Cr1  1  0.000000  -0.000000  0.500000  1
  Cr  Cr2  1  0.000000  0.500000  0.000000  1
  Cr  Cr3  1  0.500000  0.500000  0.500000  1
  Cr  Cr4  1  0.500000  -0.000000  0.000000  1
  Cu  Cu5  1  0.500000  0.500000  0.000000  1
  Cu  Cu6  1  0.000000  0.500000  0.500000  1
  Cu  Cu7  1  0.500000  -0.000000  0.500000  1
  O  O8  1  0.831210  0.310370  0.141581  1
  O  O9  1  0.168790  0.689630  0.858419  1
  O  O10  1  0.831210  0.689630  0.520841  1
  O  O11  1  0.310370  0.479159  0.168790  1
  O  O12  1  0.479159  0.168790  0.310370  1
  O  O13  1  0.141581  0.831210  0.310370  1
  O  O14  1  0.689630  0.858419  0.168790  1
  O  O15  1  0.520841  0.831210  0.689630  1
  O  O16  1  0.168790  0.310370  0.479159  1
  O  O17  1  0.689630  0.520841  0.831210  1
  O  O18  1  0.858419  0.168790  0.689630  1
  O  O19  1  0.310370  0.141581  0.831210  1
