# generated using pymatgen
data_CaP2(WO4)2
_symmetry_space_group_name_H-M   'P 1'
_cell_length_a   5.11498834
_cell_length_b   9.72752561
_cell_length_c   15.36769241
_cell_angle_alpha   81.82507949
_cell_angle_beta   80.42025461
_cell_angle_gamma   74.75701075
_symmetry_Int_Tables_number   1
_chemical_formula_structural   CaP2(WO4)2
_chemical_formula_sum   'Ca4 P8 W8 O32'
_cell_volume   723.54469761
_cell_formula_units_Z   4
loop_
 _symmetry_equiv_pos_site_id
 _symmetry_equiv_pos_as_xyz
  1  'x, y, z'
loop_
 _atom_site_type_symbol
 _atom_site_label
 _atom_site_symmetry_multiplicity
 _atom_site_fract_x
 _atom_site_fract_y
 _atom_site_fract_z
 _atom_site_occupancy
  Ca  Ca0  1  0.467032  0.824713  0.869613  1
  Ca  Ca1  1  0.161357  0.675287  0.630387  1
  Ca  Ca2  1  0.838642  0.324713  0.369613  1
  Ca  Ca3  1  0.532968  0.175287  0.130387  1
  P  P4  1  0.061732  0.566658  0.855119  1
  P  P5  1  0.731563  0.432563  0.606882  1
  P  P6  1  0.938268  0.433342  0.144881  1
  P  P7  1  0.228992  0.932563  0.106882  1
  P  P8  1  0.516493  0.066658  0.355119  1
  P  P9  1  0.483507  0.933342  0.644881  1
  P  P10  1  0.268437  0.567437  0.393118  1
  P  P11  1  0.771008  0.067437  0.893118  1
  W  W12  1  0.077419  0.248891  0.973002  1
  W  W13  1  0.299312  0.251109  0.526998  1
  W  W14  1  0.922581  0.751109  0.026998  1
  W  W15  1  0.500000  0.500000  -0.000000  1
  W  W16  1  0.700688  0.748891  0.473002  1
  W  W17  1  0.736788  0.750000  0.250000  1
  W  W18  1  0.263212  0.250000  0.750000  1
  W  W19  1  -0.000000  -0.000000  0.500000  1
  O  O20  1  0.675960  0.402776  0.122301  1
  O  O21  1  0.895238  0.901185  0.901517  1
  O  O22  1  0.798963  0.902776  0.622301  1
  O  O23  1  0.751554  0.382378  0.515762  1
  O  O24  1  0.176275  0.387825  0.064302  1
  O  O25  1  0.486682  0.401792  0.674472  1
  O  O26  1  0.649695  0.117622  0.984238  1
  O  O27  1  0.988723  0.857024  0.143946  1
  O  O28  1  0.248446  0.617622  0.484238  1
  O  O29  1  0.697940  0.598815  0.598483  1
  O  O30  1  0.886896  0.599483  0.148615  1
  O  O31  1  0.613353  0.150639  0.271356  1
  O  O32  1  0.104762  0.098815  0.098483  1
  O  O33  1  0.010307  0.357024  0.643946  1
  O  O34  1  0.324039  0.597224  0.877699  1
  O  O35  1  0.113104  0.400517  0.851385  1
  O  O36  1  0.964652  0.650639  0.771356  1
  O  O37  1  0.350305  0.882378  0.015762  1
  O  O38  1  0.365006  0.099483  0.648615  1
  O  O39  1  0.386647  0.849361  0.728644  1
  O  O40  1  0.989693  0.642976  0.356054  1
  O  O41  1  0.371599  0.887825  0.564302  1
  O  O42  1  0.011277  0.142976  0.856054  1
  O  O43  1  0.437053  0.901792  0.174472  1
  O  O44  1  0.302060  0.401185  0.401517  1
  O  O45  1  0.201037  0.097224  0.377699  1
  O  O46  1  0.035348  0.349361  0.228644  1
  O  O47  1  0.628401  0.112175  0.435698  1
  O  O48  1  0.823725  0.612175  0.935698  1
  O  O49  1  0.562947  0.098208  0.825528  1
  O  O50  1  0.513318  0.598208  0.325528  1
  O  O51  1  0.634994  0.900517  0.351385  1
