# generated using pymatgen
data_LaZnFeMoO6
_symmetry_space_group_name_H-M   'P 1'
_cell_length_a   5.95719529
_cell_length_b   5.53378271
_cell_length_c   7.79437033
_cell_angle_alpha   89.79745202
_cell_angle_beta   90.00000000
_cell_angle_gamma   90.00000000
_symmetry_Int_Tables_number   1
_chemical_formula_structural   LaZnFeMoO6
_chemical_formula_sum   'La2 Zn2 Fe2 Mo2 O12'
_cell_volume   256.94623739
_cell_formula_units_Z   2
loop_
 _symmetry_equiv_pos_site_id
 _symmetry_equiv_pos_as_xyz
  1  'x, y, z'
loop_
 _atom_site_type_symbol
 _atom_site_label
 _atom_site_symmetry_multiplicity
 _atom_site_fract_x
 _atom_site_fract_y
 _atom_site_fract_z
 _atom_site_occupancy
  La  La0  1  0.069159  0.980621  0.247702  1
  La  La1  1  0.430841  0.480621  0.747702  1
  Zn  Zn2  1  0.389918  0.477531  0.253100  1
  Zn  Zn3  1  0.110082  0.977531  0.753100  1
  Fe  Fe4  1  0.525620  0.994725  0.003486  1
  Fe  Fe5  1  0.974380  0.494725  0.503486  1
  Mo  Mo6  1  0.529805  0.999230  0.496778  1
  Mo  Mo7  1  0.970195  0.499230  0.996778  1
  O  O8  1  0.032499  0.632383  0.752366  1
  O  O9  1  0.182800  0.202907  0.941779  1
  O  O10  1  0.211843  0.174690  0.550617  1
  O  O11  1  0.288157  0.674690  0.050617  1
  O  O12  1  0.317200  0.702907  0.441779  1
  O  O13  1  0.467501  0.132383  0.252365  1
  O  O14  1  0.494224  0.908757  0.747578  1
  O  O15  1  0.678775  0.304353  0.553599  1
  O  O16  1  0.717204  0.324802  0.952996  1
  O  O17  1  0.782796  0.824802  0.452996  1
  O  O18  1  0.821225  0.804353  0.053599  1
  O  O19  1  0.005776  0.408757  0.247578  1
