# generated using pymatgen
data_ZnCu(SiO3)2
_symmetry_space_group_name_H-M   'P 1'
_cell_length_a   5.29372752
_cell_length_b   6.90245849
_cell_length_c   6.90245876
_cell_angle_alpha   86.49980353
_cell_angle_beta   73.76526294
_cell_angle_gamma   73.76526723
_symmetry_Int_Tables_number   1
_chemical_formula_structural   ZnCu(SiO3)2
_chemical_formula_sum   'Zn2 Cu2 Si4 O12'
_cell_volume   232.46061604
_cell_formula_units_Z   2
loop_
 _symmetry_equiv_pos_site_id
 _symmetry_equiv_pos_as_xyz
  1  'x, y, z'
loop_
 _atom_site_type_symbol
 _atom_site_label
 _atom_site_symmetry_multiplicity
 _atom_site_fract_x
 _atom_site_fract_y
 _atom_site_fract_z
 _atom_site_occupancy
  Zn  Zn0  1  0.750000  0.238060  0.761940  1
  Zn  Zn1  1  0.250001  0.761940  0.238061  1
  Cu  Cu2  1  0.249999  0.108369  0.891632  1
  Cu  Cu3  1  0.749999  0.891633  0.108368  1
  Si  Si4  1  0.246133  0.211750  0.382888  1
  Si  Si5  1  0.253866  0.617112  0.788250  1
  Si  Si6  1  0.746133  0.382888  0.211750  1
  Si  Si7  1  0.753867  0.788250  0.617112  1
  O  O8  1  0.492958  0.315625  0.374885  1
  O  O9  1  0.007042  0.625114  0.684376  1
  O  O10  1  0.507043  0.684376  0.625115  1
  O  O11  1  0.992957  0.374886  0.315624  1
  O  O12  1  0.127472  0.143177  0.611393  1
  O  O13  1  0.372528  0.388606  0.856822  1
  O  O14  1  0.872528  0.856823  0.388607  1
  O  O15  1  0.627471  0.611393  0.143178  1
  O  O16  1  0.868810  0.211831  0.025988  1
  O  O17  1  0.631190  0.974012  0.788168  1
  O  O18  1  0.368809  0.025988  0.211832  1
  O  O19  1  0.131191  0.788169  0.974012  1
