# generated using pymatgen
data_ZnCr2(PO4)2
_symmetry_space_group_name_H-M   'P 1'
_cell_length_a   5.10731044
_cell_length_b   9.39165505
_cell_length_c   14.22393883
_cell_angle_alpha   84.74118865
_cell_angle_beta   79.65749298
_cell_angle_gamma   74.22223411
_symmetry_Int_Tables_number   1
_chemical_formula_structural   ZnCr2(PO4)2
_chemical_formula_sum   'Zn4 Cr8 P8 O32'
_cell_volume   645.23210880
_cell_formula_units_Z   4
loop_
 _symmetry_equiv_pos_site_id
 _symmetry_equiv_pos_as_xyz
  1  'x, y, z'
loop_
 _atom_site_type_symbol
 _atom_site_label
 _atom_site_symmetry_multiplicity
 _atom_site_fract_x
 _atom_site_fract_y
 _atom_site_fract_z
 _atom_site_occupancy
  Zn  Zn0  1  0.428660  0.861426  0.873845  1
  Zn  Zn1  1  0.163931  0.638574  0.626155  1
  Zn  Zn2  1  0.836069  0.361426  0.373845  1
  Zn  Zn3  1  0.571340  0.138574  0.126155  1
  Cr  Cr4  1  0.156603  0.235640  0.970715  1
  Cr  Cr5  1  0.362957  0.264360  0.529285  1
  Cr  Cr6  1  0.843397  0.764360  0.029285  1
  Cr  Cr7  1  0.500000  0.500000  -0.000000  1
  Cr  Cr8  1  0.637043  0.735640  0.470715  1
  Cr  Cr9  1  0.690499  0.750000  0.250000  1
  Cr  Cr10  1  0.309501  0.250000  0.750000  1
  Cr  Cr11  1  0.000000  -0.000000  0.500000  1
  P  P12  1  0.066045  0.566357  0.857654  1
  P  P13  1  0.770278  0.425622  0.606577  1
  P  P14  1  0.933955  0.433643  0.142346  1
  P  P15  1  0.197523  0.925622  0.106577  1
  P  P16  1  0.509946  0.066357  0.357654  1
  P  P17  1  0.490054  0.933643  0.642346  1
  P  P18  1  0.229722  0.574378  0.393423  1
  P  P19  1  0.802477  0.074378  0.893423  1
  O  O20  1  0.701711  0.386544  0.106663  1
  O  O21  1  0.781419  0.910845  0.916334  1
  O  O22  1  0.805082  0.886544  0.606663  1
  O  O23  1  0.819421  0.324062  0.519829  1
  O  O24  1  0.196830  0.390331  0.061936  1
  O  O25  1  0.602981  0.372773  0.694246  1
  O  O26  1  0.663313  0.175938  0.980171  1
  O  O27  1  0.882540  0.922893  0.121554  1
  O  O28  1  0.180579  0.675938  0.480171  1
  O  O29  1  0.608597  0.589155  0.583666  1
  O  O30  1  0.867152  0.607715  0.142911  1
  O  O31  1  0.589639  0.141893  0.261755  1
  O  O32  1  0.218581  0.089155  0.083666  1
  O  O33  1  0.073013  0.422893  0.621554  1
  O  O34  1  0.298288  0.613456  0.893337  1
  O  O35  1  0.132848  0.392285  0.857089  1
  O  O36  1  0.006713  0.641893  0.761755  1
  O  O37  1  0.336687  0.824062  0.019829  1
  O  O38  1  0.382221  0.107715  0.642911  1
  O  O39  1  0.410361  0.858107  0.738245  1
  O  O40  1  0.926987  0.577107  0.378446  1
  O  O41  1  0.350903  0.890331  0.561936  1
  O  O42  1  0.117460  0.077107  0.878446  1
  O  O43  1  0.329999  0.872773  0.194246  1
  O  O44  1  0.391403  0.410845  0.416334  1
  O  O45  1  0.194918  0.113456  0.393337  1
  O  O46  1  0.993287  0.358107  0.238245  1
  O  O47  1  0.649097  0.109669  0.438064  1
  O  O48  1  0.803170  0.609669  0.938064  1
  O  O49  1  0.670001  0.127227  0.805754  1
  O  O50  1  0.397019  0.627227  0.305754  1
  O  O51  1  0.617779  0.892285  0.357089  1
