# generated using pymatgen
data_MgAs2WO7
_symmetry_space_group_name_H-M   'P 1'
_cell_length_a   7.23914607
_cell_length_b   10.22149920
_cell_length_c   10.67771480
_cell_angle_alpha   90.00000000
_cell_angle_beta   118.00068598
_cell_angle_gamma   90.00000000
_symmetry_Int_Tables_number   1
_chemical_formula_structural   MgAs2WO7
_chemical_formula_sum   'Mg4 As8 W4 O28'
_cell_volume   697.60955051
_cell_formula_units_Z   4
loop_
 _symmetry_equiv_pos_site_id
 _symmetry_equiv_pos_as_xyz
  1  'x, y, z'
loop_
 _atom_site_type_symbol
 _atom_site_label
 _atom_site_symmetry_multiplicity
 _atom_site_fract_x
 _atom_site_fract_y
 _atom_site_fract_z
 _atom_site_occupancy
  Mg  Mg0  1  0.340737  0.913821  0.879053  1
  Mg  Mg1  1  0.659263  0.413821  0.620947  1
  Mg  Mg2  1  0.659263  0.086179  0.120947  1
  Mg  Mg3  1  0.340737  0.586179  0.379053  1
  As  As4  1  0.421356  0.227912  0.793703  1
  As  As5  1  0.578644  0.727912  0.706297  1
  As  As6  1  0.578644  0.772088  0.206297  1
  As  As7  1  0.421356  0.272088  0.293702  1
  As  As8  1  0.976220  0.332122  0.995407  1
  As  As9  1  0.023780  0.832122  0.504593  1
  As  As10  1  0.023780  0.667878  0.004593  1
  As  As11  1  0.976220  0.167878  0.495407  1
  W  W12  1  0.842172  0.101611  0.755841  1
  W  W13  1  0.157828  0.601611  0.744159  1
  W  W14  1  0.157828  0.898389  0.244159  1
  W  W15  1  0.842172  0.398389  0.255841  1
  O  O16  1  0.845611  0.292248  0.106706  1
  O  O17  1  0.154389  0.792248  0.393294  1
  O  O18  1  0.154389  0.707752  0.893294  1
  O  O19  1  0.845611  0.207752  0.606706  1
  O  O20  1  0.368851  0.493454  0.800195  1
  O  O21  1  0.631149  0.993454  0.699805  1
  O  O22  1  0.631149  0.506546  0.199805  1
  O  O23  1  0.368851  0.006546  0.300195  1
  O  O24  1  0.504247  0.085976  0.904407  1
  O  O25  1  0.495753  0.585976  0.595593  1
  O  O26  1  0.495753  0.914024  0.095593  1
  O  O27  1  0.504247  0.414024  0.404407  1
  O  O28  1  0.242610  0.146384  0.622944  1
  O  O29  1  0.757390  0.646384  0.877056  1
  O  O30  1  0.757390  0.853616  0.377056  1
  O  O31  1  0.242610  0.353616  0.122944  1
  O  O32  1  0.946682  0.008853  0.222201  1
  O  O33  1  0.053318  0.508853  0.277799  1
  O  O34  1  0.053318  0.991147  0.777799  1
  O  O35  1  0.946682  0.491147  0.722201  1
  O  O36  1  0.633397  0.241584  0.239876  1
  O  O37  1  0.366603  0.741584  0.260124  1
  O  O38  1  0.366603  0.758416  0.760124  1
  O  O39  1  0.633397  0.258416  0.739876  1
  O  O40  1  0.986035  0.340877  0.451894  1
  O  O41  1  0.013965  0.840877  0.048106  1
  O  O42  1  0.013965  0.659123  0.548106  1
  O  O43  1  0.986035  0.159123  0.951894  1
