# generated using pymatgen
data_ZnCu2(PO4)2
_symmetry_space_group_name_H-M   'P 1'
_cell_length_a   5.07898861
_cell_length_b   9.15617962
_cell_length_c   13.85209551
_cell_angle_alpha   84.34510872
_cell_angle_beta   79.43626556
_cell_angle_gamma   73.89770696
_symmetry_Int_Tables_number   1
_chemical_formula_structural   ZnCu2(PO4)2
_chemical_formula_sum   'Zn4 Cu8 P8 O32'
_cell_volume   607.64168594
_cell_formula_units_Z   4
loop_
 _symmetry_equiv_pos_site_id
 _symmetry_equiv_pos_as_xyz
  1  'x, y, z'
loop_
 _atom_site_type_symbol
 _atom_site_label
 _atom_site_symmetry_multiplicity
 _atom_site_fract_x
 _atom_site_fract_y
 _atom_site_fract_z
 _atom_site_occupancy
  Zn  Zn0  1  0.434139  0.853875  0.876233  1
  Zn  Zn1  1  0.164247  0.646125  0.623767  1
  Zn  Zn2  1  0.835753  0.353875  0.376233  1
  Zn  Zn3  1  0.565861  0.146125  0.123767  1
  Cu  Cu4  1  0.162816  0.233611  0.968290  1
  Cu  Cu5  1  0.364717  0.266388  0.531710  1
  Cu  Cu6  1  0.837184  0.766389  0.031710  1
  Cu  Cu7  1  0.500000  0.500000  -0.000000  1
  Cu  Cu8  1  0.635283  0.733611  0.468290  1
  Cu  Cu9  1  0.646340  0.750000  0.250000  1
  Cu  Cu10  1  0.353660  0.250000  0.750000  1
  Cu  Cu11  1  0.000000  0.000000  0.500000  1
  P  P12  1  0.074319  0.559100  0.859464  1
  P  P13  1  0.776011  0.427523  0.606789  1
  P  P14  1  0.925681  0.440900  0.140536  1
  P  P15  1  0.189677  0.927523  0.106789  1
  P  P16  1  0.507117  0.059100  0.359464  1
  P  P17  1  0.492883  0.940900  0.640536  1
  P  P18  1  0.223989  0.572477  0.393211  1
  P  P19  1  0.810323  0.072477  0.893211  1
  O  O20  1  0.681969  0.399076  0.106657  1
  O  O21  1  0.788788  0.904314  0.918112  1
  O  O22  1  0.812297  0.899076  0.606657  1
  O  O23  1  0.810142  0.318553  0.523553  1
  O  O24  1  0.188237  0.393522  0.057863  1
  O  O25  1  0.609571  0.384237  0.701813  1
  O  O26  1  0.652250  0.181447  0.976447  1
  O  O27  1  0.874996  0.927034  0.116295  1
  O  O28  1  0.189858  0.681447  0.476447  1
  O  O29  1  0.611215  0.595686  0.581888  1
  O  O30  1  0.868404  0.619553  0.145179  1
  O  O31  1  0.581462  0.141665  0.262387  1
  O  O32  1  0.211212  0.095686  0.081888  1
  O  O33  1  0.081676  0.427034  0.616295  1
  O  O34  1  0.318030  0.600924  0.893343  1
  O  O35  1  0.131596  0.380447  0.854821  1
  O  O36  1  0.014486  0.641665  0.762387  1
  O  O37  1  0.347750  0.818553  0.023553  1
  O  O38  1  0.366864  0.119553  0.645179  1
  O  O39  1  0.418538  0.858335  0.737613  1
  O  O40  1  0.918324  0.572966  0.383705  1
  O  O41  1  0.360378  0.893522  0.557863  1
  O  O42  1  0.125004  0.072966  0.883705  1
  O  O43  1  0.304379  0.884237  0.201813  1
  O  O44  1  0.388785  0.404314  0.418112  1
  O  O45  1  0.187703  0.100924  0.393343  1
  O  O46  1  0.985514  0.358335  0.237613  1
  O  O47  1  0.639622  0.106478  0.442137  1
  O  O48  1  0.811763  0.606478  0.942137  1
  O  O49  1  0.695621  0.115763  0.798187  1
  O  O50  1  0.390429  0.615763  0.298187  1
  O  O51  1  0.633136  0.880447  0.354821  1
