# generated using pymatgen
data_Mg2W2O5
_symmetry_space_group_name_H-M   'P 1'
_cell_length_a   3.22559044
_cell_length_b   5.26768489
_cell_length_c   14.10711261
_cell_angle_alpha   90.00271721
_cell_angle_beta   90.53329220
_cell_angle_gamma   90.01328272
_symmetry_Int_Tables_number   1
_chemical_formula_structural   Mg2W2O5
_chemical_formula_sum   'Mg4 W4 O10'
_cell_volume   239.68911955
_cell_formula_units_Z   2
loop_
 _symmetry_equiv_pos_site_id
 _symmetry_equiv_pos_as_xyz
  1  'x, y, z'
loop_
 _atom_site_type_symbol
 _atom_site_label
 _atom_site_symmetry_multiplicity
 _atom_site_fract_x
 _atom_site_fract_y
 _atom_site_fract_z
 _atom_site_occupancy
  Mg  Mg0  1  0.509987  0.201375  0.804269  1
  Mg  Mg1  1  0.494880  0.802167  0.201043  1
  Mg  Mg2  1  0.489262  0.701276  0.695863  1
  Mg  Mg3  1  0.505891  0.301823  0.298914  1
  W  W4  1  0.984771  0.194980  0.579178  1
  W  W5  1  0.000732  0.808341  0.420042  1
  W  W6  1  -0.000348  0.308763  0.079924  1
  W  W7  1  0.014294  0.695175  0.920898  1
  O  O8  1  0.005748  0.504647  0.500868  1
  O  O9  1  0.007205  0.101675  0.326936  1
  O  O10  1  0.993474  0.602278  0.172902  1
  O  O11  1  0.010590  0.389490  0.835454  1
  O  O12  1  0.495066  0.165250  0.159446  1
  O  O13  1  0.502165  0.831830  0.836896  1
  O  O14  1  0.988814  0.889296  0.664596  1
  O  O15  1  0.497451  0.331761  0.663180  1
  O  O16  1  0.994441  0.005095  -0.000901  1
  O  O17  1  0.505584  0.664776  0.340492  1
