# generated using pymatgen
data_Ba2AlCu3O7
_symmetry_space_group_name_H-M   'P 1'
_cell_length_a   3.69489225
_cell_length_b   3.84180266
_cell_length_c   11.86076542
_cell_angle_alpha   89.99977623
_cell_angle_beta   90.00078280
_cell_angle_gamma   89.98219219
_symmetry_Int_Tables_number   1
_chemical_formula_structural   Ba2AlCu3O7
_chemical_formula_sum   'Ba2 Al1 Cu3 O7'
_cell_volume   168.36411302
_cell_formula_units_Z   1
loop_
 _symmetry_equiv_pos_site_id
 _symmetry_equiv_pos_as_xyz
  1  'x, y, z'
loop_
 _atom_site_type_symbol
 _atom_site_label
 _atom_site_symmetry_multiplicity
 _atom_site_fract_x
 _atom_site_fract_y
 _atom_site_fract_z
 _atom_site_occupancy
  Ba  Ba0  1  0.499999  0.500001  0.816504  1
  Ba  Ba1  1  0.500002  0.500001  0.183446  1
  Al  Al2  1  0.500000  0.499997  0.499983  1
  Cu  Cu3  1  -0.000002  0.000002  0.633492  1
  Cu  Cu4  1  0.000002  0.999998  0.366386  1
  Cu  Cu5  1  0.999999  0.000001  0.000017  1
  O  O6  1  0.000000  0.500000  0.000010  1
  O  O7  1  0.499994  0.000004  0.602786  1
  O  O8  1  0.500005  0.999997  0.397379  1
  O  O9  1  0.999993  0.500002  0.603565  1
  O  O10  1  0.000009  0.499997  0.396367  1
  O  O11  1  1.000000  0.000001  0.841046  1
  O  O12  1  0.999999  0.000001  0.159019  1
