# generated using pymatgen
data_VZnP2O7
_symmetry_space_group_name_H-M   'P 1'
_cell_length_a   5.79858781
_cell_length_b   6.58605590
_cell_length_c   7.31378603
_cell_angle_alpha   81.99937582
_cell_angle_beta   85.27287795
_cell_angle_gamma   70.47750809
_symmetry_Int_Tables_number   1
_chemical_formula_structural   VZnP2O7
_chemical_formula_sum   'V2 Zn2 P4 O14'
_cell_volume   260.49937177
_cell_formula_units_Z   2
loop_
 _symmetry_equiv_pos_site_id
 _symmetry_equiv_pos_as_xyz
  1  'x, y, z'
loop_
 _atom_site_type_symbol
 _atom_site_label
 _atom_site_symmetry_multiplicity
 _atom_site_fract_x
 _atom_site_fract_y
 _atom_site_fract_z
 _atom_site_occupancy
  V  V0  1  0.251631  0.149867  0.201363  1
  V  V1  1  0.748373  0.850109  0.798639  1
  Zn  Zn2  1  0.352643  0.654791  0.661439  1
  Zn  Zn3  1  0.647327  0.345229  0.338555  1
  P  P4  1  0.182815  0.674268  0.096621  1
  P  P5  1  0.817185  0.325743  0.903366  1
  P  P6  1  0.232632  0.207769  0.616391  1
  P  P7  1  0.767378  0.792228  0.383627  1
  O  O8  1  0.115132  0.699464  0.892565  1
  O  O9  1  0.884861  0.300533  0.107443  1
  O  O10  1  0.280734  0.844185  0.142962  1
  O  O11  1  0.719299  0.155797  0.857015  1
  O  O12  1  0.346994  0.441185  0.160819  1
  O  O13  1  0.653009  0.558799  0.839182  1
  O  O14  1  0.612968  0.639734  0.434869  1
  O  O15  1  0.387031  0.360269  0.565132  1
  O  O16  1  0.061471  0.218109  0.463880  1
  O  O17  1  0.938515  0.781901  0.536119  1
  O  O18  1  0.080078  0.300257  0.797636  1
  O  O19  1  0.610760  0.028047  0.317351  1
  O  O20  1  0.389231  0.971960  0.682651  1
  O  O21  1  0.919936  0.699753  0.202374  1
