# generated using pymatgen
data_Ba2AlTlCo2O7
_symmetry_space_group_name_H-M   'P 1'
_cell_length_a   4.04302512
_cell_length_b   4.26710347
_cell_length_c   11.55869495
_cell_angle_alpha   89.57168859
_cell_angle_beta   81.28660574
_cell_angle_gamma   89.81806035
_symmetry_Int_Tables_number   1
_chemical_formula_structural   Ba2AlTlCo2O7
_chemical_formula_sum   'Ba2 Al1 Tl1 Co2 O7'
_cell_volume   197.10325368
_cell_formula_units_Z   1
loop_
 _symmetry_equiv_pos_site_id
 _symmetry_equiv_pos_as_xyz
  1  'x, y, z'
loop_
 _atom_site_type_symbol
 _atom_site_label
 _atom_site_symmetry_multiplicity
 _atom_site_fract_x
 _atom_site_fract_y
 _atom_site_fract_z
 _atom_site_occupancy
  Ba  Ba0  1  0.392446  0.517300  0.222419  1
  Ba  Ba1  1  0.607265  0.520337  0.777264  1
  Al  Al2  1  0.503617  0.371735  0.500483  1
  Tl  Tl3  1  0.000632  0.081280  0.000347  1
  Co  Co4  1  0.864695  0.989288  0.374356  1
  Co  Co5  1  0.134027  0.987312  0.617466  1
  O  O6  1  0.925304  0.982614  0.186714  1
  O  O7  1  0.802219  0.530606  0.387356  1
  O  O8  1  0.330072  0.081121  0.411200  1
  O  O9  1  0.664068  0.079766  0.594374  1
  O  O10  1  0.499154  0.348021  0.001549  1
  O  O11  1  0.197397  0.528740  0.610117  1
  O  O12  1  0.079100  0.981876  0.816354  1
