# generated using pymatgen
data_MgNi2(PO5)2
_symmetry_space_group_name_H-M   'P 1'
_cell_length_a   6.54740827
_cell_length_b   6.54740777
_cell_length_c   8.96119206
_cell_angle_alpha   101.84188972
_cell_angle_beta   101.84188837
_cell_angle_gamma   115.99349694
_symmetry_Int_Tables_number   1
_chemical_formula_structural   MgNi2(PO5)2
_chemical_formula_sum   'Mg2 Ni4 P4 O20'
_cell_volume   318.35718206
_cell_formula_units_Z   2
loop_
 _symmetry_equiv_pos_site_id
 _symmetry_equiv_pos_as_xyz
  1  'x, y, z'
loop_
 _atom_site_type_symbol
 _atom_site_label
 _atom_site_symmetry_multiplicity
 _atom_site_fract_x
 _atom_site_fract_y
 _atom_site_fract_z
 _atom_site_occupancy
  Mg  Mg0  1  0.495272  0.995272  0.500000  1
  Mg  Mg1  1  0.245272  0.245272  1.000000  1
  Ni  Ni2  1  0.873187  0.619809  0.250851  1
  Ni  Ni3  1  0.368957  0.622334  0.749149  1
  Ni  Ni4  1  0.872334  0.118957  0.249149  1
  Ni  Ni5  1  0.869809  0.623187  0.750851  1
  P  P6  1  0.039680  0.039994  0.588970  1
  P  P7  1  0.700710  0.201024  0.911030  1
  P  P8  1  0.451024  0.450710  0.411030  1
  P  P9  1  0.289994  0.789680  0.088970  1
  O  O10  1  0.579843  0.552447  0.293445  1
  O  O11  1  0.664175  0.664488  0.844552  1
  O  O12  1  0.315450  0.590842  0.980319  1
  O  O13  1  0.802447  0.329843  0.793445  1
  O  O14  1  0.207278  0.231148  0.289953  1
  O  O15  1  0.419940  0.647552  0.517216  1
  O  O16  1  0.069623  0.569937  0.655448  1
  O  O17  1  0.819937  0.819623  0.155448  1
  O  O18  1  0.914488  0.414175  0.344552  1
  O  O19  1  0.167324  0.691195  0.210047  1
  O  O20  1  0.259002  0.286398  0.706555  1
  O  O21  1  0.481148  0.957278  0.789953  1
  O  O22  1  0.941195  0.917324  0.710047  1
  O  O23  1  0.152726  0.880337  0.982784  1
  O  O24  1  0.130337  0.902726  0.482784  1
  O  O25  1  0.897552  0.169940  0.017216  1
  O  O26  1  0.840842  0.065450  0.480319  1
  O  O27  1  0.610523  0.335132  0.019681  1
  O  O28  1  0.536398  0.009002  0.206555  1
  O  O29  1  0.585132  0.360523  0.519681  1
