# generated using pymatgen
data_CaCr(GeO3)2
_symmetry_space_group_name_H-M   'P 1'
_cell_length_a   5.31311200
_cell_length_b   9.42715442
_cell_length_c   10.40692282
_cell_angle_alpha   90.00000000
_cell_angle_beta   104.86592762
_cell_angle_gamma   90.00000000
_symmetry_Int_Tables_number   1
_chemical_formula_structural   CaCr(GeO3)2
_chemical_formula_sum   'Ca4 Cr4 Ge8 O24'
_cell_volume   503.80994275
_cell_formula_units_Z   4
loop_
 _symmetry_equiv_pos_site_id
 _symmetry_equiv_pos_as_xyz
  1  'x, y, z'
loop_
 _atom_site_type_symbol
 _atom_site_label
 _atom_site_symmetry_multiplicity
 _atom_site_fract_x
 _atom_site_fract_y
 _atom_site_fract_z
 _atom_site_occupancy
  Ca  Ca0  1  0.477613  0.448988  0.283033  1
  Ca  Ca1  1  0.022387  0.948988  0.716967  1
  Ca  Ca2  1  0.522387  0.551012  0.716967  1
  Ca  Ca3  1  0.977613  0.051012  0.283033  1
  Cr  Cr4  1  0.976751  0.658345  0.228803  1
  Cr  Cr5  1  0.523249  0.158345  0.771197  1
  Cr  Cr6  1  0.023249  0.341655  0.771197  1
  Cr  Cr7  1  0.476751  0.841655  0.228803  1
  Ge  Ge8  1  0.838388  0.347998  0.050425  1
  Ge  Ge9  1  0.661612  0.847998  0.949575  1
  Ge  Ge10  1  0.161612  0.652002  0.949575  1
  Ge  Ge11  1  0.338388  0.152002  0.050425  1
  Ge  Ge12  1  0.093361  0.351686  0.491425  1
  Ge  Ge13  1  0.406639  0.851686  0.508575  1
  Ge  Ge14  1  0.906639  0.648314  0.508575  1
  Ge  Ge15  1  0.593361  0.148314  0.491425  1
  O  O16  1  0.313527  0.249651  0.401510  1
  O  O17  1  0.186473  0.749651  0.598490  1
  O  O18  1  0.686473  0.750349  0.598490  1
  O  O19  1  0.813527  0.250349  0.401510  1
  O  O20  1  0.186206  0.307815  0.102785  1
  O  O21  1  0.313794  0.807815  0.897216  1
  O  O22  1  0.813794  0.692185  0.897216  1
  O  O23  1  0.686206  0.192185  0.102785  1
  O  O24  1  0.669676  0.978787  0.432333  1
  O  O25  1  0.830324  0.478787  0.567667  1
  O  O26  1  0.330324  0.021213  0.567667  1
  O  O27  1  0.169676  0.521213  0.432333  1
  O  O28  1  0.270841  0.019112  0.150780  1
  O  O29  1  0.229159  0.519112  0.849220  1
  O  O30  1  0.729159  0.980888  0.849220  1
  O  O31  1  0.770841  0.480888  0.150780  1
  O  O32  1  0.749139  0.365574  0.877552  1
  O  O33  1  0.750861  0.865574  0.122448  1
  O  O34  1  0.250861  0.634426  0.122448  1
  O  O35  1  0.249139  0.134426  0.877552  1
  O  O36  1  0.287373  0.324514  0.657270  1
  O  O37  1  0.212627  0.824514  0.342730  1
  O  O38  1  0.712627  0.675486  0.342730  1
  O  O39  1  0.787373  0.175486  0.657270  1
