# generated using pymatgen
data_Zn2Fe9O13
_symmetry_space_group_name_H-M   'P 1'
_cell_length_a   2.98524606
_cell_length_b   5.27003955
_cell_length_c   17.24113778
_cell_angle_alpha   97.99534591
_cell_angle_beta   90.01517542
_cell_angle_gamma   106.42628008
_symmetry_Int_Tables_number   1
_chemical_formula_structural   Zn2Fe9O13
_chemical_formula_sum   'Zn2 Fe9 O13'
_cell_volume   257.41986164
_cell_formula_units_Z   1
loop_
 _symmetry_equiv_pos_site_id
 _symmetry_equiv_pos_as_xyz
  1  'x, y, z'
loop_
 _atom_site_type_symbol
 _atom_site_label
 _atom_site_symmetry_multiplicity
 _atom_site_fract_x
 _atom_site_fract_y
 _atom_site_fract_z
 _atom_site_occupancy
  Zn  Zn0  1  0.210893  0.419677  0.229731  1
  Zn  Zn1  1  0.789107  0.580323  0.770269  1
  Fe  Fe2  1  0.500000  0.000000  0.500000  1
  Fe  Fe3  1  0.647922  0.295608  0.044134  1
  Fe  Fe4  1  0.352078  0.704392  0.955866  1
  Fe  Fe5  1  0.747197  0.494375  0.416124  1
  Fe  Fe6  1  0.252803  0.505625  0.583876  1
  Fe  Fe7  1  0.932419  0.864436  0.130971  1
  Fe  Fe8  1  0.067581  0.135564  0.869029  1
  Fe  Fe9  1  0.983976  0.968116  0.324517  1
  Fe  Fe10  1  0.016024  0.031884  0.675483  1
  O  O11  1  0.000000  0.000000  -0.000000  1
  O  O12  1  0.849871  0.698092  0.228564  1
  O  O13  1  0.150129  0.301908  0.771436  1
  O  O14  1  0.286862  0.573593  0.065534  1
  O  O15  1  0.713138  0.426407  0.934466  1
  O  O16  1  0.586177  0.172421  0.144963  1
  O  O17  1  0.413823  0.827579  0.855037  1
  O  O18  1  0.631715  0.264460  0.315174  1
  O  O19  1  0.368285  0.735540  0.684826  1
  O  O20  1  0.377319  0.754727  0.393878  1
  O  O21  1  0.622681  0.245273  0.606122  1
  O  O22  1  0.141232  0.282418  0.462711  1
  O  O23  1  0.858768  0.717582  0.537289  1
