# generated using pymatgen
data_Mg(CuO2)2
_symmetry_space_group_name_H-M   'P 1'
_cell_length_a   5.90722720
_cell_length_b   5.95598638
_cell_length_c   5.95598650
_cell_angle_alpha   59.99999668
_cell_angle_beta   59.72657515
_cell_angle_gamma   59.72656988
_symmetry_Int_Tables_number   1
_chemical_formula_structural   Mg(CuO2)2
_chemical_formula_sum   'Mg2 Cu4 O8'
_cell_volume   147.56004287
_cell_formula_units_Z   2
loop_
 _symmetry_equiv_pos_site_id
 _symmetry_equiv_pos_as_xyz
  1  'x, y, z'
loop_
 _atom_site_type_symbol
 _atom_site_label
 _atom_site_symmetry_multiplicity
 _atom_site_fract_x
 _atom_site_fract_y
 _atom_site_fract_z
 _atom_site_occupancy
  Mg  Mg0  1  0.965347  0.011551  0.011551  1
  Mg  Mg1  1  0.124258  0.625247  0.625247  1
  Cu  Cu2  1  0.266801  0.244400  0.244400  1
  Cu  Cu3  1  0.624850  0.122874  0.626138  1
  Cu  Cu4  1  0.624850  0.626138  0.122874  1
  Cu  Cu5  1  0.624850  0.626138  0.626138  1
  O  O6  1  0.409982  0.376770  0.376770  1
  O  O7  1  0.409982  0.376770  0.836477  1
  O  O8  1  0.409982  0.836477  0.376770  1
  O  O9  1  0.874229  0.375257  0.375257  1
  O  O10  1  0.379311  0.873562  0.873562  1
  O  O11  1  0.845187  0.418097  0.868358  1
  O  O12  1  0.845187  0.868358  0.418097  1
  O  O13  1  0.845187  0.868358  0.868358  1
