# generated using pymatgen
data_CaSnBiO5
_symmetry_space_group_name_H-M   'P 1'
_cell_length_a   5.51967431
_cell_length_b   10.56205513
_cell_length_c   15.89246507
_cell_angle_alpha   90.00000000
_cell_angle_beta   90.00000000
_cell_angle_gamma   90.00000000
_symmetry_Int_Tables_number   1
_chemical_formula_structural   CaSnBiO5
_chemical_formula_sum   'Ca8 Sn8 Bi8 O40'
_cell_volume   926.51647968
_cell_formula_units_Z   8
loop_
 _symmetry_equiv_pos_site_id
 _symmetry_equiv_pos_as_xyz
  1  'x, y, z'
loop_
 _atom_site_type_symbol
 _atom_site_label
 _atom_site_symmetry_multiplicity
 _atom_site_fract_x
 _atom_site_fract_y
 _atom_site_fract_z
 _atom_site_occupancy
  Ca  Ca0  1  0.542954  0.368826  0.431231  1
  Ca  Ca1  1  0.042954  0.131174  0.431231  1
  Ca  Ca2  1  0.042954  0.631174  0.068769  1
  Ca  Ca3  1  0.957046  0.368826  0.931231  1
  Ca  Ca4  1  0.457046  0.131174  0.931231  1
  Ca  Ca5  1  0.957046  0.868826  0.568769  1
  Ca  Ca6  1  0.457046  0.631174  0.568769  1
  Ca  Ca7  1  0.542954  0.868826  0.068769  1
  Sn  Sn8  1  0.037915  0.380083  0.569951  1
  Sn  Sn9  1  0.462085  0.880083  0.430049  1
  Sn  Sn10  1  0.962085  0.619917  0.430049  1
  Sn  Sn11  1  0.537915  0.119917  0.569951  1
  Sn  Sn12  1  0.962085  0.119917  0.069951  1
  Sn  Sn13  1  0.037915  0.880083  0.930049  1
  Sn  Sn14  1  0.462085  0.380083  0.069951  1
  Sn  Sn15  1  0.537915  0.619917  0.930049  1
  Bi  Bi16  1  0.970724  0.852629  0.245374  1
  Bi  Bi17  1  0.029276  0.147371  0.754626  1
  Bi  Bi18  1  0.529276  0.352629  0.754626  1
  Bi  Bi19  1  0.029276  0.647371  0.745374  1
  Bi  Bi20  1  0.470724  0.147371  0.254626  1
  Bi  Bi21  1  0.470724  0.647371  0.245374  1
  Bi  Bi22  1  0.529276  0.852629  0.745374  1
  Bi  Bi23  1  0.970724  0.352629  0.254626  1
  O  O24  1  0.874373  0.310661  0.683391  1
  O  O25  1  0.222249  0.995736  0.026547  1
  O  O26  1  0.277751  0.495736  0.973453  1
  O  O27  1  0.266510  0.780277  0.166601  1
  O  O28  1  0.233490  0.280277  0.833399  1
  O  O29  1  0.874373  0.810661  0.816609  1
  O  O30  1  0.233490  0.780277  0.666601  1
  O  O31  1  0.625627  0.810661  0.316609  1
  O  O32  1  0.222249  0.495736  0.473453  1
  O  O33  1  0.125627  0.689339  0.316609  1
  O  O34  1  0.625627  0.310661  0.183391  1
  O  O35  1  0.794356  0.243769  0.522161  1
  O  O36  1  0.722249  0.004264  0.473453  1
  O  O37  1  0.733490  0.719723  0.666601  1
  O  O38  1  0.239227  0.988646  0.838818  1
  O  O39  1  0.722249  0.504264  0.026547  1
  O  O40  1  0.125627  0.189339  0.183391  1
  O  O41  1  0.766510  0.219723  0.333399  1
  O  O42  1  0.294356  0.756231  0.977839  1
  O  O43  1  0.277751  0.995736  0.526547  1
  O  O44  1  0.205644  0.756231  0.477839  1
  O  O45  1  0.760773  0.011354  0.161182  1
  O  O46  1  0.733490  0.219723  0.833399  1
  O  O47  1  0.739227  0.011354  0.661182  1
  O  O48  1  0.205644  0.256231  0.022161  1
  O  O49  1  0.294356  0.256231  0.522161  1
  O  O50  1  0.777751  0.504264  0.526547  1
  O  O51  1  0.777751  0.004264  0.973453  1
  O  O52  1  0.739227  0.511354  0.838818  1
  O  O53  1  0.705644  0.743769  0.477839  1
  O  O54  1  0.705644  0.243769  0.022161  1
  O  O55  1  0.794356  0.743769  0.977839  1
  O  O56  1  0.760773  0.511354  0.338818  1
  O  O57  1  0.766510  0.719723  0.166601  1
  O  O58  1  0.266510  0.280277  0.333399  1
  O  O59  1  0.239227  0.488646  0.661182  1
  O  O60  1  0.260773  0.488646  0.161182  1
  O  O61  1  0.374373  0.189339  0.683391  1
  O  O62  1  0.260773  0.988646  0.338818  1
  O  O63  1  0.374373  0.689339  0.816609  1
