# generated using pymatgen
data_Al5CuS8
_symmetry_space_group_name_H-M   'P 1'
_cell_length_a   7.07887319
_cell_length_b   7.07887355
_cell_length_c   7.07887329
_cell_angle_alpha   59.99999993
_cell_angle_beta   60.00000050
_cell_angle_gamma   60.00000172
_symmetry_Int_Tables_number   1
_chemical_formula_structural   Al5CuS8
_chemical_formula_sum   'Al5 Cu1 S8'
_cell_volume   250.82881983
_cell_formula_units_Z   1
loop_
 _symmetry_equiv_pos_site_id
 _symmetry_equiv_pos_as_xyz
  1  'x, y, z'
loop_
 _atom_site_type_symbol
 _atom_site_label
 _atom_site_symmetry_multiplicity
 _atom_site_fract_x
 _atom_site_fract_y
 _atom_site_fract_z
 _atom_site_occupancy
  Al  Al0  1  0.020443  0.493186  0.493186  1
  Al  Al1  1  0.493186  0.493186  0.020443  1
  Al  Al2  1  0.493186  0.020443  0.493186  1
  Al  Al3  1  0.493186  0.493186  0.493186  1
  Al  Al4  1  0.875000  0.875000  0.875000  1
  Cu  Cu5  1  0.125000  0.125000  0.125000  1
  S  S6  1  0.256740  0.256740  0.256740  1
  S  S7  1  0.256740  0.729779  0.256740  1
  S  S8  1  0.256740  0.256740  0.729779  1
  S  S9  1  0.729779  0.256740  0.256740  1
  S  S10  1  0.275401  0.741533  0.741533  1
  S  S11  1  0.741533  0.741533  0.275401  1
  S  S12  1  0.741533  0.275401  0.741533  1
  S  S13  1  0.741533  0.741533  0.741533  1
