# generated using pymatgen
data_Zn4Co5(TeO6)3
_symmetry_space_group_name_H-M   'P 1'
_cell_length_a   8.72651576
_cell_length_b   8.72651559
_cell_length_c   10.54631706
_cell_angle_alpha   86.38259005
_cell_angle_beta   86.38258943
_cell_angle_gamma   61.47589768
_symmetry_Int_Tables_number   1
_chemical_formula_structural   Zn4Co5(TeO6)3
_chemical_formula_sum   'Zn8 Co10 Te6 O36'
_cell_volume   703.73406050
_cell_formula_units_Z   2
loop_
 _symmetry_equiv_pos_site_id
 _symmetry_equiv_pos_as_xyz
  1  'x, y, z'
loop_
 _atom_site_type_symbol
 _atom_site_label
 _atom_site_symmetry_multiplicity
 _atom_site_fract_x
 _atom_site_fract_y
 _atom_site_fract_z
 _atom_site_occupancy
  Zn  Zn0  1  0.870148  0.537705  0.324847  1
  Zn  Zn1  1  0.482071  0.566318  0.204552  1
  Zn  Zn2  1  0.462295  0.129852  0.675153  1
  Zn  Zn3  1  0.433682  0.517929  0.795448  1
  Zn  Zn4  1  0.174633  0.873802  0.704543  1
  Zn  Zn5  1  0.146024  0.261841  0.824868  1
  Zn  Zn6  1  0.738159  0.853976  0.175132  1
  Zn  Zn7  1  0.126198  0.825367  0.295457  1
  Co  Co8  1  0.794644  0.486163  0.980230  1
  Co  Co9  1  0.094515  0.186349  0.480199  1
  Co  Co10  1  0.347651  0.321708  0.305068  1
  Co  Co11  1  0.929935  0.739456  0.805094  1
  Co  Co12  1  0.678292  0.652349  0.694932  1
  Co  Co13  1  0.987162  0.012838  0.000000  1
  Co  Co14  1  0.621140  0.378859  0.500000  1
  Co  Co15  1  0.260544  0.070066  0.194906  1
  Co  Co16  1  0.813651  0.905485  0.519801  1
  Co  Co17  1  0.513837  0.205356  0.019770  1
  Te  Te18  1  0.461748  0.862989  0.948297  1
  Te  Te19  1  0.804180  0.195822  0.249906  1
  Te  Te20  1  0.804178  0.195820  0.750094  1
  Te  Te21  1  0.471307  0.853423  0.448241  1
  Te  Te22  1  0.146577  0.528693  0.551759  1
  Te  Te23  1  0.137011  0.538252  0.051703  1
  O  O24  1  0.394632  0.087899  0.855260  1
  O  O25  1  0.714277  0.434344  0.811661  1
  O  O26  1  0.562588  0.631844  0.545372  1
  O  O27  1  0.728943  0.134599  0.413400  1
  O  O28  1  0.565656  0.285723  0.188339  1
  O  O29  1  0.865401  0.271057  0.586600  1
  O  O30  1  0.376891  0.783004  0.312260  1
  O  O31  1  0.041062  0.105138  0.814040  1
  O  O32  1  0.567237  0.286565  0.685906  1
  O  O33  1  0.080685  0.416831  0.419389  1
  O  O34  1  0.560795  0.645741  0.049960  1
  O  O35  1  0.527633  0.974870  0.080606  1
  O  O36  1  0.893987  0.957381  0.688331  1
  O  O37  1  0.692389  0.757050  0.860221  1
  O  O38  1  0.354259  0.439205  0.950040  1
  O  O39  1  0.231364  0.608668  0.187777  1
  O  O40  1  0.047453  0.745953  0.450045  1
  O  O41  1  0.242950  0.307611  0.139779  1
  O  O42  1  0.368156  0.437412  0.454628  1
  O  O43  1  0.254047  0.952547  0.549955  1
  O  O44  1  0.696192  0.786309  0.355266  1
  O  O45  1  0.915921  0.634674  0.639806  1
  O  O46  1  0.894862  0.958938  0.185960  1
  O  O47  1  0.391332  0.768636  0.812223  1
  O  O48  1  0.045682  0.759842  0.954624  1
  O  O49  1  0.742928  0.120742  0.913322  1
  O  O50  1  0.025130  0.472367  0.919394  1
  O  O51  1  0.216996  0.623109  0.687740  1
  O  O52  1  0.042619  0.106013  0.311669  1
  O  O53  1  0.365326  0.084079  0.360194  1
  O  O54  1  0.213691  0.303808  0.644734  1
  O  O55  1  0.879258  0.257072  0.086678  1
  O  O56  1  0.713435  0.432763  0.314094  1
  O  O57  1  0.583169  0.919315  0.580611  1
  O  O58  1  0.240158  0.954318  0.045376  1
  O  O59  1  0.912101  0.605368  0.144740  1
