# generated using pymatgen
data_Al2(CuO2)3
_symmetry_space_group_name_H-M   'P 1'
_cell_length_a   8.79634237
_cell_length_b   2.86537296
_cell_length_c   11.33983201
_cell_angle_alpha   90.07790028
_cell_angle_beta   89.92737095
_cell_angle_gamma   119.32967326
_symmetry_Int_Tables_number   1
_chemical_formula_structural   Al2(CuO2)3
_chemical_formula_sum   'Al4 Cu6 O12'
_cell_volume   249.18051995
_cell_formula_units_Z   2
loop_
 _symmetry_equiv_pos_site_id
 _symmetry_equiv_pos_as_xyz
  1  'x, y, z'
loop_
 _atom_site_type_symbol
 _atom_site_label
 _atom_site_symmetry_multiplicity
 _atom_site_fract_x
 _atom_site_fract_y
 _atom_site_fract_z
 _atom_site_occupancy
  Al  Al0  1  0.008029  0.014810  0.003314  1
  Al  Al1  1  0.660990  0.992165  0.996365  1
  Al  Al2  1  0.992245  0.983606  0.503553  1
  Al  Al3  1  0.339164  0.004479  0.496228  1
  Cu  Cu4  1  0.211892  0.318416  0.745110  1
  Cu  Cu5  1  0.559514  0.336578  0.749462  1
  Cu  Cu6  1  0.902357  0.351478  0.754077  1
  Cu  Cu7  1  0.097447  0.646327  0.254124  1
  Cu  Cu8  1  0.440318  0.656251  0.249564  1
  Cu  Cu9  1  0.788149  0.681342  0.245685  1
  O  O10  1  0.108815  0.658138  0.415714  1
  O  O11  1  0.416759  0.620855  0.404953  1
  O  O12  1  0.803439  0.700918  0.398590  1
  O  O13  1  0.196080  0.299074  0.898285  1
  O  O14  1  0.583805  0.375965  0.905066  1
  O  O15  1  0.891097  0.338267  0.916020  1
  O  O16  1  0.084059  0.629754  0.095571  1
  O  O17  1  0.471565  0.705749  0.098555  1
  O  O18  1  0.773403  0.662001  0.084532  1
  O  O19  1  0.226182  0.335317  0.583997  1
  O  O20  1  0.527730  0.287879  0.598978  1
  O  O21  1  0.916049  0.368472  0.595677  1
