# generated using pymatgen
data_Y2Cr3O12
_symmetry_space_group_name_H-M   'P 1'
_cell_length_a   5.99294216
_cell_length_b   5.99056698
_cell_length_c   17.96363651
_cell_angle_alpha   105.91405046
_cell_angle_beta   105.88029972
_cell_angle_gamma   116.91026495
_symmetry_Int_Tables_number   1
_chemical_formula_structural   Y2Cr3O12
_chemical_formula_sum   'Y4 Cr6 O24'
_cell_volume   489.96058684
_cell_formula_units_Z   2
loop_
 _symmetry_equiv_pos_site_id
 _symmetry_equiv_pos_as_xyz
  1  'x, y, z'
loop_
 _atom_site_type_symbol
 _atom_site_label
 _atom_site_symmetry_multiplicity
 _atom_site_fract_x
 _atom_site_fract_y
 _atom_site_fract_z
 _atom_site_occupancy
  Y  Y0  1  0.133714  0.881851  0.089962  1
  Y  Y1  1  0.113920  0.862848  0.409137  1
  Y  Y2  1  0.882687  0.133525  0.589601  1
  Y  Y3  1  0.863751  0.113884  0.909988  1
  Cr  Cr4  1  0.374230  0.621779  0.249688  1
  Cr  Cr5  1  0.369230  0.620458  0.580794  1
  Cr  Cr6  1  0.379667  0.627477  0.919905  1
  Cr  Cr7  1  0.619920  0.369898  0.081314  1
  Cr  Cr8  1  0.627865  0.377287  0.418592  1
  Cr  Cr9  1  0.622402  0.372360  0.749600  1
  O  O10  1  0.787607  0.710699  0.142148  1
  O  O11  1  0.795403  0.730448  0.478203  1
  O  O12  1  0.774597  0.712481  0.813834  1
  O  O13  1  0.333687  0.771489  0.186438  1
  O  O14  1  0.354154  0.793102  0.520975  1
  O  O15  1  0.363100  0.788563  0.860115  1
  O  O16  1  0.715368  0.774743  0.312352  1
  O  O17  1  0.710678  0.787152  0.640434  1
  O  O18  1  0.732577  0.796036  0.979725  1
  O  O19  1  0.790391  0.356744  0.020520  1
  O  O20  1  0.786846  0.360169  0.358084  1
  O  O21  1  0.772670  0.336088  0.686205  1
  O  O22  1  0.633900  0.207160  0.140671  1
  O  O23  1  0.640461  0.204906  0.478701  1
  O  O24  1  0.660040  0.219014  0.811992  1
  O  O25  1  0.224024  0.281940  0.186622  1
  O  O26  1  0.202956  0.268489  0.520027  1
  O  O27  1  0.214750  0.286962  0.859469  1
  O  O28  1  0.224055  0.658780  0.313120  1
  O  O29  1  0.210503  0.633473  0.641572  1
  O  O30  1  0.207022  0.638688  0.980004  1
  O  O31  1  0.267701  0.204641  0.021453  1
  O  O32  1  0.287234  0.212212  0.358600  1
  O  O33  1  0.282451  0.222188  0.686381  1
