# generated using pymatgen
data_Y2Cr3O12
_symmetry_space_group_name_H-M   'P 1'
_cell_length_a   15.21289258
_cell_length_b   5.08544588
_cell_length_c   6.84018600
_cell_angle_alpha   111.92380246
_cell_angle_beta   111.37438506
_cell_angle_gamma   90.29764767
_symmetry_Int_Tables_number   1
_chemical_formula_structural   Y2Cr3O12
_chemical_formula_sum   'Y4 Cr6 O24'
_cell_volume   450.99611063
_cell_formula_units_Z   2
loop_
 _symmetry_equiv_pos_site_id
 _symmetry_equiv_pos_as_xyz
  1  'x, y, z'
loop_
 _atom_site_type_symbol
 _atom_site_label
 _atom_site_symmetry_multiplicity
 _atom_site_fract_x
 _atom_site_fract_y
 _atom_site_fract_z
 _atom_site_occupancy
  Y  Y0  1  0.456424  0.123624  0.750601  1
  Y  Y1  1  0.787115  0.126726  0.746803  1
  Y  Y2  1  0.210242  0.876376  0.249399  1
  Y  Y3  1  0.879552  0.873274  0.253197  1
  Cr  Cr4  1  0.288215  0.625209  0.739328  1
  Cr  Cr5  1  0.629122  0.629275  0.762740  1
  Cr  Cr6  1  0.955454  0.620467  0.748940  1
  Cr  Cr7  1  0.037545  0.370725  0.237260  1
  Cr  Cr8  1  0.378452  0.374791  0.260672  1
  Cr  Cr9  1  0.711212  0.379533  0.251060  1
  O  O10  1  0.013972  0.211259  0.389208  1
  O  O11  1  0.360619  0.171928  0.401401  1
  O  O12  1  0.699636  0.243749  0.424628  1
  O  O13  1  0.242758  0.808194  0.925601  1
  O  O14  1  0.571686  0.840507  0.902727  1
  O  O15  1  0.894234  0.838936  0.893868  1
  O  O16  1  0.106576  0.689755  0.383870  1
  O  O17  1  0.448633  0.684514  0.442097  1
  O  O18  1  0.777582  0.718095  0.397547  1
  O  O19  1  0.060703  0.606101  0.923302  1
  O  O20  1  0.394176  0.551198  0.867870  1
  O  O21  1  0.739960  0.568684  0.920534  1
  O  O22  1  0.272490  0.448802  0.132130  1
  O  O23  1  0.605964  0.393899  0.076698  1
  O  O24  1  0.926707  0.431316  0.079466  1
  O  O25  1  0.094981  0.159493  0.097273  1
  O  O26  1  0.423908  0.191806  0.074399  1
  O  O27  1  0.772433  0.161064  0.106132  1
  O  O28  1  0.306048  0.828073  0.598599  1
  O  O29  1  0.652695  0.788742  0.610792  1
  O  O30  1  0.967030  0.756252  0.575372  1
  O  O31  1  0.218034  0.315486  0.557903  1
  O  O32  1  0.560090  0.310245  0.616130  1
  O  O33  1  0.889085  0.281905  0.602453  1
