# generated using pymatgen
data_TiZnFe(PO4)3
_symmetry_space_group_name_H-M   'P 1'
_cell_length_a   8.55370576
_cell_length_b   8.55370609
_cell_length_c   8.55370587
_cell_angle_alpha   60.50036067
_cell_angle_beta   60.50036175
_cell_angle_gamma   60.50036713
_symmetry_Int_Tables_number   1
_chemical_formula_structural   TiZnFe(PO4)3
_chemical_formula_sum   'Ti2 Zn2 Fe2 P6 O24'
_cell_volume   447.53957166
_cell_formula_units_Z   2
loop_
 _symmetry_equiv_pos_site_id
 _symmetry_equiv_pos_as_xyz
  1  'x, y, z'
loop_
 _atom_site_type_symbol
 _atom_site_label
 _atom_site_symmetry_multiplicity
 _atom_site_fract_x
 _atom_site_fract_y
 _atom_site_fract_z
 _atom_site_occupancy
  Ti  Ti0  1  0.144665  0.144665  0.144665  1
  Ti  Ti1  1  0.644665  0.644665  0.644665  1
  Zn  Zn2  1  0.997551  0.997551  0.997551  1
  Zn  Zn3  1  0.497551  0.497551  0.497551  1
  Fe  Fe4  1  0.355203  0.355203  0.355203  1
  Fe  Fe5  1  0.855203  0.855203  0.855203  1
  P  P6  1  0.045582  0.455280  0.751936  1
  P  P7  1  0.455280  0.751936  0.045582  1
  P  P8  1  0.751936  0.045582  0.455280  1
  P  P9  1  0.251936  0.955280  0.545582  1
  P  P10  1  0.545582  0.251936  0.955280  1
  P  P11  1  0.955280  0.545582  0.251936  1
  O  O12  1  0.110036  0.503799  0.319036  1
  O  O13  1  0.319036  0.110036  0.503799  1
  O  O14  1  0.055032  0.258323  0.914406  1
  O  O15  1  0.503799  0.319036  0.110036  1
  O  O16  1  0.003799  0.610036  0.819036  1
  O  O17  1  0.240245  0.438267  0.589800  1
  O  O18  1  0.258323  0.914406  0.055032  1
  O  O19  1  0.438267  0.589800  0.240245  1
  O  O20  1  0.188146  0.002526  0.380167  1
  O  O21  1  0.589800  0.240245  0.438267  1
  O  O22  1  0.089800  0.938267  0.740245  1
  O  O23  1  0.380167  0.188146  0.002526  1
  O  O24  1  0.610036  0.819036  0.003799  1
  O  O25  1  0.914406  0.055032  0.258323  1
  O  O26  1  0.414406  0.758323  0.555032  1
  O  O27  1  0.819036  0.003799  0.610036  1
  O  O28  1  0.555032  0.414406  0.758323  1
  O  O29  1  0.740245  0.089800  0.938267  1
  O  O30  1  0.758323  0.555032  0.414406  1
  O  O31  1  0.002526  0.380167  0.188146  1
  O  O32  1  0.502526  0.688146  0.880167  1
  O  O33  1  0.938267  0.740245  0.089800  1
  O  O34  1  0.688146  0.880167  0.502526  1
  O  O35  1  0.880167  0.502526  0.688146  1
