# generated using pymatgen
data_Ca3Cu2(GeO4)3
_symmetry_space_group_name_H-M   'P 1'
_cell_length_a   10.77890164
_cell_length_b   10.77890106
_cell_length_c   10.77890120
_cell_angle_alpha   109.47122091
_cell_angle_beta   109.47121984
_cell_angle_gamma   109.47121988
_symmetry_Int_Tables_number   1
_chemical_formula_structural   Ca3Cu2(GeO4)3
_chemical_formula_sum   'Ca12 Cu8 Ge12 O48'
_cell_volume   964.05453440
_cell_formula_units_Z   4
loop_
 _symmetry_equiv_pos_site_id
 _symmetry_equiv_pos_as_xyz
  1  'x, y, z'
loop_
 _atom_site_type_symbol
 _atom_site_label
 _atom_site_symmetry_multiplicity
 _atom_site_fract_x
 _atom_site_fract_y
 _atom_site_fract_z
 _atom_site_occupancy
  Ca  Ca0  1  0.625000  0.250000  0.875000  1
  Ca  Ca1  1  0.875000  0.750000  0.625000  1
  Ca  Ca2  1  0.750000  0.625000  0.875000  1
  Ca  Ca3  1  0.250000  0.875000  0.625000  1
  Ca  Ca4  1  0.875000  0.625000  0.250000  1
  Ca  Ca5  1  0.625000  0.875000  0.750000  1
  Ca  Ca6  1  0.375000  0.750000  0.125000  1
  Ca  Ca7  1  0.125000  0.250000  0.375000  1
  Ca  Ca8  1  0.250000  0.375000  0.125000  1
  Ca  Ca9  1  0.750000  0.125000  0.375000  1
  Ca  Ca10  1  0.125000  0.375000  0.750000  1
  Ca  Ca11  1  0.375000  0.125000  0.250000  1
  Cu  Cu12  1  0.500000  0.500000  0.500000  1
  Cu  Cu13  1  0.500000  0.500000  0.000000  1
  Cu  Cu14  1  0.500000  0.000000  0.500000  1
  Cu  Cu15  1  0.000000  0.500000  0.500000  1
  Cu  Cu16  1  0.500000  0.000000  0.000000  1
  Cu  Cu17  1  0.000000  0.000000  0.500000  1
  Cu  Cu18  1  0.000000  0.500000  0.000000  1
  Cu  Cu19  1  0.000000  0.000000  0.000000  1
  Ge  Ge20  1  0.875000  0.125000  0.750000  1
  Ge  Ge21  1  0.125000  0.875000  0.250000  1
  Ge  Ge22  1  0.250000  0.625000  0.375000  1
  Ge  Ge23  1  0.125000  0.750000  0.875000  1
  Ge  Ge24  1  0.750000  0.875000  0.125000  1
  Ge  Ge25  1  0.375000  0.250000  0.625000  1
  Ge  Ge26  1  0.625000  0.750000  0.375000  1
  Ge  Ge27  1  0.875000  0.250000  0.125000  1
  Ge  Ge28  1  0.250000  0.125000  0.875000  1
  Ge  Ge29  1  0.750000  0.375000  0.625000  1
  Ge  Ge30  1  0.375000  0.625000  0.750000  1
  Ge  Ge31  1  0.625000  0.375000  0.250000  1
  O  O32  1  0.796680  0.415740  0.814881  1
  O  O33  1  0.084260  0.880940  0.399140  1
  O  O34  1  0.685119  0.100860  0.981798  1
  O  O35  1  0.703320  0.518202  0.619060  1
  O  O36  1  0.703320  0.685119  0.084260  1
  O  O37  1  0.518202  0.619060  0.703320  1
  O  O38  1  0.100860  0.619060  0.415740  1
  O  O39  1  0.619060  0.703320  0.518202  1
  O  O40  1  0.399140  0.814881  0.518202  1
  O  O41  1  0.880940  0.981798  0.796680  1
  O  O42  1  0.981798  0.796680  0.880940  1
  O  O43  1  0.084260  0.703320  0.685119  1
  O  O44  1  0.619060  0.415740  0.100860  1
  O  O45  1  0.518202  0.399140  0.814881  1
  O  O46  1  0.685119  0.084260  0.703320  1
  O  O47  1  0.415740  0.100860  0.619060  1
  O  O48  1  0.814881  0.518202  0.399140  1
  O  O49  1  0.399140  0.084260  0.880940  1
  O  O50  1  0.100860  0.981798  0.685119  1
  O  O51  1  0.600860  0.185119  0.481798  1
  O  O52  1  0.981798  0.685119  0.100860  1
  O  O53  1  0.814881  0.796680  0.415740  1
  O  O54  1  0.880940  0.399140  0.084260  1
  O  O55  1  0.796680  0.880940  0.981798  1
  O  O56  1  0.203320  0.584260  0.185119  1
  O  O57  1  0.915740  0.119060  0.600860  1
  O  O58  1  0.314881  0.899140  0.018202  1
  O  O59  1  0.296680  0.481798  0.380940  1
  O  O60  1  0.296680  0.314881  0.915740  1
  O  O61  1  0.481798  0.380940  0.296680  1
  O  O62  1  0.899140  0.380940  0.584260  1
  O  O63  1  0.380940  0.296680  0.481798  1
  O  O64  1  0.203320  0.119060  0.018202  1
  O  O65  1  0.119060  0.600860  0.915740  1
  O  O66  1  0.185119  0.203320  0.584260  1
  O  O67  1  0.584260  0.185119  0.203320  1
  O  O68  1  0.018202  0.314881  0.899140  1
  O  O69  1  0.899140  0.018202  0.314881  1
  O  O70  1  0.600860  0.915740  0.119060  1
  O  O71  1  0.185119  0.481798  0.600860  1
  O  O72  1  0.584260  0.899140  0.380940  1
  O  O73  1  0.314881  0.915740  0.296680  1
  O  O74  1  0.481798  0.600860  0.185119  1
  O  O75  1  0.380940  0.584260  0.899140  1
  O  O76  1  0.915740  0.296680  0.314881  1
  O  O77  1  0.018202  0.203320  0.119060  1
  O  O78  1  0.119060  0.018202  0.203320  1
  O  O79  1  0.415740  0.814881  0.796680  1
