# generated using pymatgen
data_Ba2Ca2Ti3Tl2O10
_symmetry_space_group_name_H-M   'P 1'
_cell_length_a   3.92836180
_cell_length_b   3.93133736
_cell_length_c   19.95883709
_cell_angle_alpha   96.69222202
_cell_angle_beta   96.03030011
_cell_angle_gamma   90.02952174
_symmetry_Int_Tables_number   1
_chemical_formula_structural   Ba2Ca2Ti3Tl2O10
_chemical_formula_sum   'Ba2 Ca2 Ti3 Tl2 O10'
_cell_volume   304.41898876
_cell_formula_units_Z   1
loop_
 _symmetry_equiv_pos_site_id
 _symmetry_equiv_pos_as_xyz
  1  'x, y, z'
loop_
 _atom_site_type_symbol
 _atom_site_label
 _atom_site_symmetry_multiplicity
 _atom_site_fract_x
 _atom_site_fract_y
 _atom_site_fract_z
 _atom_site_occupancy
  Ba  Ba0  1  0.096540  0.190682  0.318770  1
  Ba  Ba1  1  0.756490  0.816051  0.679839  1
  Ca  Ca2  1  0.880446  0.944038  0.907449  1
  Ca  Ca3  1  0.980457  0.061384  0.091637  1
  Ti  Ti4  1  0.328348  0.388540  0.815951  1
  Ti  Ti5  1  0.526812  0.616609  0.183144  1
  Ti  Ti6  1  0.431140  0.503195  0.999512  1
  Tl  Tl7  1  0.701818  0.720145  0.442074  1
  Tl  Tl8  1  0.259694  0.273701  0.556998  1
  O  O9  1  0.342974  0.901240  0.837843  1
  O  O10  1  0.275030  0.333017  0.725341  1
  O  O11  1  0.842645  0.401152  0.837681  1
  O  O12  1  0.843298  0.798804  0.559793  1
  O  O13  1  0.931282  0.503223  0.999410  1
  O  O14  1  0.017379  0.603362  0.160827  1
  O  O15  1  0.571656  0.672902  0.273555  1
  O  O16  1  0.518100  0.103783  0.161604  1
  O  O17  1  0.265211  0.182716  0.439725  1
  O  O18  1  0.431768  0.003421  -0.000190  1
