# generated using pymatgen
data_W2O5
_symmetry_space_group_name_H-M   'P 1'
_cell_length_a   4.03412985
_cell_length_b   3.86830399
_cell_length_c   12.91263892
_cell_angle_alpha   90.00041613
_cell_angle_beta   89.99716436
_cell_angle_gamma   89.99598171
_symmetry_Int_Tables_number   1
_chemical_formula_structural   W2O5
_chemical_formula_sum   'W4 O10'
_cell_volume   201.50483675
_cell_formula_units_Z   2
loop_
 _symmetry_equiv_pos_site_id
 _symmetry_equiv_pos_as_xyz
  1  'x, y, z'
loop_
 _atom_site_type_symbol
 _atom_site_label
 _atom_site_symmetry_multiplicity
 _atom_site_fract_x
 _atom_site_fract_y
 _atom_site_fract_z
 _atom_site_occupancy
  W  W0  1  0.018497  0.982696  0.151126  1
  W  W1  1  0.518443  0.017418  0.348860  1
  W  W2  1  0.518649  0.017375  0.651121  1
  W  W3  1  0.018597  0.982560  0.848891  1
  O  O4  1  0.518591  0.006327  0.183066  1
  O  O5  1  0.018600  0.993678  0.316931  1
  O  O6  1  0.018561  0.993577  0.683083  1
  O  O7  1  0.518560  0.006309  0.816938  1
  O  O8  1  0.018644  0.491002  0.846028  1
  O  O9  1  0.518750  0.509025  0.653985  1
  O  O10  1  0.518416  0.509127  0.345965  1
  O  O11  1  0.518571  0.015239  0.499992  1
  O  O12  1  0.018517  0.984647  0.000004  1
  O  O13  1  0.018595  0.491020  0.154007  1
