# generated using pymatgen
data_TaPO5
_symmetry_space_group_name_H-M   'P 1'
_cell_length_a   7.12370362
_cell_length_b   7.12370341
_cell_length_c   9.10883908
_cell_angle_alpha   101.40138383
_cell_angle_beta   101.40138467
_cell_angle_gamma   119.63442292
_symmetry_Int_Tables_number   1
_chemical_formula_structural   TaPO5
_chemical_formula_sum   'Ta4 P4 O20'
_cell_volume   369.42364138
_cell_formula_units_Z   4
loop_
 _symmetry_equiv_pos_site_id
 _symmetry_equiv_pos_as_xyz
  1  'x, y, z'
loop_
 _atom_site_type_symbol
 _atom_site_label
 _atom_site_symmetry_multiplicity
 _atom_site_fract_x
 _atom_site_fract_y
 _atom_site_fract_z
 _atom_site_occupancy
  Ta  Ta0  1  0.875002  0.617034  0.254640  1
  Ta  Ta1  1  0.362393  0.620361  0.745360  1
  Ta  Ta2  1  0.870361  0.112393  0.245360  1
  Ta  Ta3  1  0.867034  0.625002  0.754640  1
  P  P4  1  0.029104  0.030636  0.570716  1
  P  P5  1  0.708387  0.209920  0.929284  1
  P  P6  1  0.459920  0.458387  0.429284  1
  P  P7  1  0.280636  0.779104  0.070716  1
  O  O8  1  0.601489  0.558051  0.323473  1
  O  O9  1  0.659502  0.667947  0.836867  1
  O  O10  1  0.308653  0.608248  0.957065  1
  O  O11  1  0.808051  0.351489  0.823473  1
  O  O12  1  0.216121  0.249878  0.319657  1
  O  O13  1  0.423636  0.628680  0.536522  1
  O  O14  1  0.072634  0.581080  0.663133  1
  O  O15  1  0.831080  0.822634  0.163133  1
  O  O16  1  0.917947  0.409502  0.336867  1
  O  O17  1  0.146464  0.680221  0.180343  1
  O  O18  1  0.234578  0.278017  0.676527  1
  O  O19  1  0.499878  0.966121  0.819657  1
  O  O20  1  0.930221  0.896464  0.680343  1
  O  O21  1  0.137116  0.842159  0.963478  1
  O  O22  1  0.092159  0.887116  0.463478  1
  O  O23  1  0.878680  0.173636  0.036522  1
  O  O24  1  0.858248  0.058653  0.457065  1
  O  O25  1  0.651184  0.351589  0.042935  1
  O  O26  1  0.528017  0.984578  0.176527  1
  O  O27  1  0.601589  0.401184  0.542935  1
