# generated using pymatgen
data_MgFe2(CuO4)2
_symmetry_space_group_name_H-M   'P 1'
_cell_length_a   6.42023868
_cell_length_b   8.29559631
_cell_length_c   11.99295422
_cell_angle_alpha   90.00504076
_cell_angle_beta   92.59863728
_cell_angle_gamma   89.98680648
_symmetry_Int_Tables_number   1
_chemical_formula_structural   MgFe2(CuO4)2
_chemical_formula_sum   'Mg4 Fe8 Cu8 O32'
_cell_volume   638.08437433
_cell_formula_units_Z   4
loop_
 _symmetry_equiv_pos_site_id
 _symmetry_equiv_pos_as_xyz
  1  'x, y, z'
loop_
 _atom_site_type_symbol
 _atom_site_label
 _atom_site_symmetry_multiplicity
 _atom_site_fract_x
 _atom_site_fract_y
 _atom_site_fract_z
 _atom_site_occupancy
  Mg  Mg0  1  0.115120  0.157783  0.047029  1
  Mg  Mg1  1  0.884869  0.842214  0.952963  1
  Mg  Mg2  1  0.884885  0.657760  0.452940  1
  Mg  Mg3  1  0.115128  0.342211  0.547057  1
  Fe  Fe4  1  0.097082  0.459610  0.837799  1
  Fe  Fe5  1  0.097089  0.040345  0.337772  1
  Fe  Fe6  1  0.611949  0.093089  0.132288  1
  Fe  Fe7  1  0.902936  0.959642  0.662196  1
  Fe  Fe8  1  0.388061  0.906913  0.867710  1
  Fe  Fe9  1  0.388080  0.593082  0.367701  1
  Fe  Fe10  1  0.611912  0.406894  0.632303  1
  Fe  Fe11  1  0.902905  0.540377  0.162221  1
  Cu  Cu12  1  0.754339  0.191081  0.880455  1
  Cu  Cu13  1  0.375546  0.058888  0.629764  1
  Cu  Cu14  1  0.624453  0.941119  0.370231  1
  Cu  Cu15  1  0.245668  0.808892  0.119539  1
  Cu  Cu16  1  0.754335  0.308872  0.380465  1
  Cu  Cu17  1  0.375538  0.441126  0.129747  1
  Cu  Cu18  1  0.245663  0.691102  0.619542  1
  Cu  Cu19  1  0.624460  0.558879  0.870241  1
  O  O20  1  0.027512  0.239008  0.396102  1
  O  O21  1  0.648274  0.013776  0.601147  1
  O  O22  1  0.190661  0.575757  0.481459  1
  O  O23  1  0.809342  0.075766  0.018525  1
  O  O24  1  0.027452  0.260965  0.896093  1
  O  O25  1  0.972509  0.760976  0.603890  1
  O  O26  1  0.096015  0.112278  0.618407  1
  O  O27  1  0.507604  0.885011  0.143780  1
  O  O28  1  0.507652  0.614991  0.643778  1
  O  O29  1  0.309518  0.872591  0.711806  1
  O  O30  1  0.690481  0.372565  0.788200  1
  O  O31  1  0.492373  0.115017  0.856214  1
  O  O32  1  0.903994  0.887732  0.381593  1
  O  O33  1  0.870185  0.521208  0.307589  1
  O  O34  1  0.412027  0.263799  0.577234  1
  O  O35  1  0.412015  0.236188  0.077216  1
  O  O36  1  0.129843  0.021130  0.192408  1
  O  O37  1  0.492355  0.385063  0.356233  1
  O  O38  1  0.129826  0.478830  0.692425  1
  O  O39  1  0.809352  0.424248  0.518547  1
  O  O40  1  0.648277  0.486208  0.101142  1
  O  O41  1  0.690484  0.127398  0.288192  1
  O  O42  1  0.972542  0.739038  0.103915  1
  O  O43  1  0.096017  0.387718  0.118398  1
  O  O44  1  0.190649  0.924231  0.981477  1
  O  O45  1  0.587985  0.763804  0.922778  1
  O  O46  1  0.351710  0.986226  0.398860  1
  O  O47  1  0.351717  0.513793  0.898855  1
  O  O48  1  0.903979  0.612279  0.881605  1
  O  O49  1  0.587972  0.736206  0.422773  1
  O  O50  1  0.309509  0.627439  0.211803  1
  O  O51  1  0.870150  0.978888  0.807594  1
