# generated using pymatgen
data_Mg(CoO2)2
_symmetry_space_group_name_H-M   'P 1'
_cell_length_a   2.92100878
_cell_length_b   5.05896921
_cell_length_c   9.64179636
_cell_angle_alpha   90.00000000
_cell_angle_beta   90.00000000
_cell_angle_gamma   106.77991188
_symmetry_Int_Tables_number   1
_chemical_formula_structural   Mg(CoO2)2
_chemical_formula_sum   'Mg2 Co4 O8'
_cell_volume   136.41298117
_cell_formula_units_Z   2
loop_
 _symmetry_equiv_pos_site_id
 _symmetry_equiv_pos_as_xyz
  1  'x, y, z'
loop_
 _atom_site_type_symbol
 _atom_site_label
 _atom_site_symmetry_multiplicity
 _atom_site_fract_x
 _atom_site_fract_y
 _atom_site_fract_z
 _atom_site_occupancy
  Mg  Mg0  1  0.387831  0.775664  0.750000  1
  Mg  Mg1  1  0.612169  0.224336  0.250000  1
  Co  Co2  1  0.866757  0.733514  0.072121  1
  Co  Co3  1  0.133243  0.266486  0.927879  1
  Co  Co4  1  0.866757  0.733514  0.427879  1
  Co  Co5  1  0.133243  0.266486  0.572121  1
  O  O6  1  0.223963  0.447927  0.386101  1
  O  O7  1  0.776037  0.552073  0.613899  1
  O  O8  1  0.776037  0.552073  0.886101  1
  O  O9  1  0.223963  0.447927  0.113899  1
  O  O10  1  0.957881  0.915763  0.250000  1
  O  O11  1  0.042119  0.084237  0.750000  1
  O  O12  1  0.500000  -0.000000  0.000000  1
  O  O13  1  0.500000  0.000000  0.500000  1
