# generated using pymatgen
data_CaCu2(MoO4)2
_symmetry_space_group_name_H-M   'P 1'
_cell_length_a   6.75879804
_cell_length_b   9.00875564
_cell_length_c   13.19799721
_cell_angle_alpha   90.00000000
_cell_angle_beta   88.83812392
_cell_angle_gamma   90.00000000
_symmetry_Int_Tables_number   1
_chemical_formula_structural   CaCu2(MoO4)2
_chemical_formula_sum   'Ca4 Cu8 Mo8 O32'
_cell_volume   803.43918140
_cell_formula_units_Z   4
loop_
 _symmetry_equiv_pos_site_id
 _symmetry_equiv_pos_as_xyz
  1  'x, y, z'
loop_
 _atom_site_type_symbol
 _atom_site_label
 _atom_site_symmetry_multiplicity
 _atom_site_fract_x
 _atom_site_fract_y
 _atom_site_fract_z
 _atom_site_occupancy
  Ca  Ca0  1  0.123131  0.165102  0.046481  1
  Ca  Ca1  1  0.876869  0.834898  0.953519  1
  Ca  Ca2  1  0.876869  0.665102  0.453519  1
  Ca  Ca3  1  0.123131  0.334898  0.546481  1
  Cu  Cu4  1  0.766947  0.187531  0.857445  1
  Cu  Cu5  1  0.388802  0.049784  0.623476  1
  Cu  Cu6  1  0.611198  0.950216  0.376524  1
  Cu  Cu7  1  0.233053  0.812469  0.142555  1
  Cu  Cu8  1  0.766947  0.312469  0.357445  1
  Cu  Cu9  1  0.388802  0.450216  0.123476  1
  Cu  Cu10  1  0.233053  0.687531  0.642555  1
  Cu  Cu11  1  0.611198  0.549784  0.876524  1
  Mo  Mo12  1  0.094487  0.458229  0.844743  1
  Mo  Mo13  1  0.094487  0.041771  0.344743  1
  Mo  Mo14  1  0.605904  0.078680  0.137216  1
  Mo  Mo15  1  0.905513  0.958229  0.655257  1
  Mo  Mo16  1  0.394096  0.921320  0.862784  1
  Mo  Mo17  1  0.394096  0.578680  0.362784  1
  Mo  Mo18  1  0.605904  0.421320  0.637216  1
  Mo  Mo19  1  0.905513  0.541771  0.155257  1
  O  O20  1  0.022070  0.227741  0.388949  1
  O  O21  1  0.669561  0.001630  0.603713  1
  O  O22  1  0.189281  0.568236  0.455284  1
  O  O23  1  0.810719  0.068236  0.044716  1
  O  O24  1  0.022070  0.272259  0.888949  1
  O  O25  1  0.977930  0.772259  0.611051  1
  O  O26  1  0.090910  0.093171  0.610386  1
  O  O27  1  0.487257  0.901675  0.133114  1
  O  O28  1  0.487257  0.598325  0.633114  1
  O  O29  1  0.312303  0.883499  0.735574  1
  O  O30  1  0.687697  0.383499  0.764426  1
  O  O31  1  0.512743  0.098325  0.866886  1
  O  O32  1  0.909090  0.906829  0.389614  1
  O  O33  1  0.877214  0.532742  0.291024  1
  O  O34  1  0.434718  0.278236  0.599741  1
  O  O35  1  0.434718  0.221764  0.099741  1
  O  O36  1  0.122786  0.032742  0.208976  1
  O  O37  1  0.512743  0.401675  0.366886  1
  O  O38  1  0.122786  0.467258  0.708976  1
  O  O39  1  0.810719  0.431764  0.544716  1
  O  O40  1  0.669561  0.498370  0.103713  1
  O  O41  1  0.687697  0.116501  0.264426  1
  O  O42  1  0.977930  0.727741  0.111051  1
  O  O43  1  0.090910  0.406829  0.110386  1
  O  O44  1  0.189281  0.931764  0.955284  1
  O  O45  1  0.565282  0.778236  0.900259  1
  O  O46  1  0.330439  0.998370  0.396287  1
  O  O47  1  0.330439  0.501630  0.896287  1
  O  O48  1  0.909090  0.593171  0.889614  1
  O  O49  1  0.565282  0.721764  0.400259  1
  O  O50  1  0.312303  0.616501  0.235574  1
  O  O51  1  0.877214  0.967258  0.791024  1
