# generated using pymatgen
data_Mg(MoO2)2
_symmetry_space_group_name_H-M   'P 1'
_cell_length_a   6.31979114
_cell_length_b   6.39677503
_cell_length_c   6.39677434
_cell_angle_alpha   59.99999198
_cell_angle_beta   59.59621645
_cell_angle_gamma   59.59621806
_symmetry_Int_Tables_number   1
_chemical_formula_structural   Mg(MoO2)2
_chemical_formula_sum   'Mg2 Mo4 O8'
_cell_volume   181.73228860
_cell_formula_units_Z   2
loop_
 _symmetry_equiv_pos_site_id
 _symmetry_equiv_pos_as_xyz
  1  'x, y, z'
loop_
 _atom_site_type_symbol
 _atom_site_label
 _atom_site_symmetry_multiplicity
 _atom_site_fract_x
 _atom_site_fract_y
 _atom_site_fract_z
 _atom_site_occupancy
  Mg  Mg0  1  0.989538  0.003487  0.003487  1
  Mg  Mg1  1  0.113672  0.628776  0.628776  1
  Mo  Mo2  1  0.297419  0.234194  0.234194  1
  Mo  Mo3  1  0.628366  0.122113  0.624760  1
  Mo  Mo4  1  0.628366  0.624760  0.122113  1
  Mo  Mo5  1  0.628366  0.624760  0.624760  1
  O  O6  1  0.377169  0.388310  0.388310  1
  O  O7  1  0.377169  0.388310  0.846210  1
  O  O8  1  0.377169  0.846210  0.388310  1
  O  O9  1  0.838898  0.387034  0.387034  1
  O  O10  1  0.392866  0.869045  0.869045  1
  O  O11  1  0.867001  0.399348  0.866826  1
  O  O12  1  0.867001  0.866826  0.399348  1
  O  O13  1  0.867001  0.866826  0.866826  1
