# generated using pymatgen
data_Y(CuO2)2
_symmetry_space_group_name_H-M   'P 1'
_cell_length_a   5.71182295
_cell_length_b   5.70547766
_cell_length_c   6.27877149
_cell_angle_alpha   116.79469325
_cell_angle_beta   116.82738512
_cell_angle_gamma   90.44740845
_symmetry_Int_Tables_number   1
_chemical_formula_structural   Y(CuO2)2
_chemical_formula_sum   'Y2 Cu4 O8'
_cell_volume   157.15192325
_cell_formula_units_Z   2
loop_
 _symmetry_equiv_pos_site_id
 _symmetry_equiv_pos_as_xyz
  1  'x, y, z'
loop_
 _atom_site_type_symbol
 _atom_site_label
 _atom_site_symmetry_multiplicity
 _atom_site_fract_x
 _atom_site_fract_y
 _atom_site_fract_z
 _atom_site_occupancy
  O  O0  1  0.719168  0.527615  0.854378  1
  O  O1  1  0.135210  0.826763  0.854378  1
  O  O2  1  0.280832  0.472385  0.145622  1
  O  O3  1  0.864790  0.173237  0.145622  1
  O  O4  1  0.530739  0.136386  0.353980  1
  O  O5  1  0.823241  0.717594  0.353980  1
  O  O6  1  0.176759  0.282406  0.646020  1
  O  O7  1  0.469261  0.863614  0.646020  1
  Cu  Cu8  1  0.500000  0.000000  0.000000  1
  Cu  Cu9  1  0.500000  0.500000  0.000000  1
  Cu  Cu10  1  0.000000  0.500000  0.500000  1
  Cu  Cu11  1  0.500000  0.500000  0.500000  1
  Y  Y12  1  0.874922  0.124922  0.749845  1
  Y  Y13  1  0.125078  0.875078  0.250155  1
