# generated using pymatgen
data_Ca2BiWO6
_symmetry_space_group_name_H-M   'P 1'
_cell_length_a   6.23667017
_cell_length_b   6.25181816
_cell_length_c   8.55338179
_cell_angle_alpha   85.04963378
_cell_angle_beta   136.72806497
_cell_angle_gamma   124.15190797
_symmetry_Int_Tables_number   1
_chemical_formula_structural   Ca2BiWO6
_chemical_formula_sum   'Ca2 Bi1 W1 O6'
_cell_volume   155.64115917
_cell_formula_units_Z   1
loop_
 _symmetry_equiv_pos_site_id
 _symmetry_equiv_pos_as_xyz
  1  'x, y, z'
loop_
 _atom_site_type_symbol
 _atom_site_label
 _atom_site_symmetry_multiplicity
 _atom_site_fract_x
 _atom_site_fract_y
 _atom_site_fract_z
 _atom_site_occupancy
  Ca  Ca0  1  0.002858  0.600359  0.308302  1
  Ca  Ca1  1  0.003367  0.556147  0.786759  1
  Bi  Bi2  1  0.001770  0.082682  0.548600  1
  W  W3  1  0.001937  0.966468  0.991621  1
  O  O4  1  0.710102  0.788310  0.043802  1
  O  O5  1  0.298764  0.070716  0.925814  1
  O  O6  1  0.574692  0.360837  0.336811  1
  O  O7  1  0.724298  0.084361  0.768997  1
  O  O8  1  0.234744  0.770988  0.158566  1
  O  O9  1  0.468770  0.538981  0.626688  1
