# generated using pymatgen
data_MgNi2(PO4)2
_symmetry_space_group_name_H-M   'P 1'
_cell_length_a   4.93962990
_cell_length_b   8.88303392
_cell_length_c   14.35828759
_cell_angle_alpha   85.99150977
_cell_angle_beta   80.08291797
_cell_angle_gamma   73.84349964
_symmetry_Int_Tables_number   1
_chemical_formula_structural   MgNi2(PO4)2
_chemical_formula_sum   'Mg4 Ni8 P8 O32'
_cell_volume   595.94020822
_cell_formula_units_Z   4
loop_
 _symmetry_equiv_pos_site_id
 _symmetry_equiv_pos_as_xyz
  1  'x, y, z'
loop_
 _atom_site_type_symbol
 _atom_site_label
 _atom_site_symmetry_multiplicity
 _atom_site_fract_x
 _atom_site_fract_y
 _atom_site_fract_z
 _atom_site_occupancy
  Mg  Mg0  1  0.443023  0.827756  0.872894  1
  Mg  Mg1  1  0.144386  0.672057  0.625995  1
  Mg  Mg2  1  0.857381  0.328600  0.372969  1
  Mg  Mg3  1  0.558985  0.171443  0.125863  1
  Ni  Ni4  1  0.200443  0.226672  0.968759  1
  Ni  Ni5  1  0.396345  0.273057  0.529999  1
  Ni  Ni6  1  0.802618  0.772301  0.029764  1
  Ni  Ni7  1  0.501637  0.499376  0.999437  1
  Ni  Ni8  1  0.605046  0.727437  0.468829  1
  Ni  Ni9  1  0.610077  0.749714  0.249220  1
  Ni  Ni10  1  0.394343  0.249651  0.749359  1
  Ni  Ni11  1  0.000044  0.999298  0.499078  1
  P  P12  1  0.068783  0.562203  0.857590  1
  P  P13  1  0.777345  0.431071  0.612878  1
  P  P14  1  0.934547  0.436830  0.141189  1
  P  P15  1  0.180474  0.930294  0.112916  1
  P  P16  1  0.511696  0.062533  0.357564  1
  P  P17  1  0.488182  0.937347  0.641235  1
  P  P18  1  0.224908  0.569412  0.385495  1
  P  P19  1  0.822670  0.068584  0.885519  1
  O  O20  1  0.705025  0.377823  0.102836  1
  O  O21  1  0.774433  0.903923  0.912903  1
  O  O22  1  0.815192  0.878053  0.602822  1
  O  O23  1  0.795050  0.308046  0.536511  1
  O  O24  1  0.207009  0.392517  0.061877  1
  O  O25  1  0.635973  0.390408  0.709472  1
  O  O26  1  0.640407  0.191619  0.961818  1
  O  O27  1  0.858841  0.940960  0.110148  1
  O  O28  1  0.207022  0.692778  0.461667  1
  O  O29  1  0.591191  0.595606  0.585503  1
  O  O30  1  0.845680  0.620305  0.141851  1
  O  O31  1  0.592794  0.139323  0.264015  1
  O  O32  1  0.228330  0.095062  0.085509  1
  O  O33  1  0.090837  0.442269  0.609842  1
  O  O34  1  0.298492  0.621049  0.895948  1
  O  O35  1  0.158270  0.378666  0.856681  1
  O  O36  1  0.004874  0.639137  0.764084  1
  O  O37  1  0.362426  0.807380  0.036537  1
  O  O38  1  0.393733  0.120885  0.642050  1
  O  O39  1  0.407598  0.860626  0.734806  1
  O  O40  1  0.911049  0.558845  0.388352  1
  O  O41  1  0.339207  0.893562  0.561842  1
  O  O42  1  0.144121  0.057907  0.888599  1
  O  O43  1  0.266706  0.889908  0.209441  1
  O  O44  1  0.409949  0.404696  0.413187  1
  O  O45  1  0.184436  0.121219  0.395594  1
  O  O46  1  0.998013  0.360248  0.234872  1
  O  O47  1  0.659515  0.106298  0.437285  1
  O  O48  1  0.796832  0.605870  0.937090  1
  O  O49  1  0.737506  0.109016  0.788852  1
  O  O50  1  0.367788  0.609182  0.288941  1
  O  O51  1  0.607437  0.879044  0.356686  1
