# generated using pymatgen
data_Ca(CrS2)2
_symmetry_space_group_name_H-M   'P 1'
_cell_length_a   7.46414260
_cell_length_b   7.46414284
_cell_length_c   7.46414317
_cell_angle_alpha   59.99999857
_cell_angle_beta   59.99999753
_cell_angle_gamma   59.99999937
_symmetry_Int_Tables_number   1
_chemical_formula_structural   Ca(CrS2)2
_chemical_formula_sum   'Ca2 Cr4 S8'
_cell_volume   294.05246072
_cell_formula_units_Z   2
loop_
 _symmetry_equiv_pos_site_id
 _symmetry_equiv_pos_as_xyz
  1  'x, y, z'
loop_
 _atom_site_type_symbol
 _atom_site_label
 _atom_site_symmetry_multiplicity
 _atom_site_fract_x
 _atom_site_fract_y
 _atom_site_fract_z
 _atom_site_occupancy
  Ca  Ca0  1  0.875000  0.874999  0.875000  1
  Ca  Ca1  1  0.125000  0.125000  0.125000  1
  Cr  Cr2  1  0.500001  0.500000  0.500000  1
  Cr  Cr3  1  0.500001  0.500000  0.000000  1
  Cr  Cr4  1  0.000000  0.500000  0.500000  1
  Cr  Cr5  1  0.500001  0.000000  0.500000  1
  S  S6  1  0.730683  0.730682  0.730684  1
  S  S7  1  0.269317  0.269317  0.692049  1
  S  S8  1  0.269318  0.692047  0.269318  1
  S  S9  1  0.692049  0.269317  0.269318  1
  S  S10  1  0.730682  0.307952  0.730682  1
  S  S11  1  0.307952  0.730682  0.730682  1
  S  S12  1  0.269317  0.269317  0.269318  1
  S  S13  1  0.730683  0.730682  0.307951  1
