# generated using pymatgen
data_ZnAg3P3O13
_symmetry_space_group_name_H-M   'P 1'
_cell_length_a   6.44571096
_cell_length_b   7.88718803
_cell_length_c   10.77346981
_cell_angle_alpha   97.03933265
_cell_angle_beta   90.00000000
_cell_angle_gamma   90.00000000
_symmetry_Int_Tables_number   1
_chemical_formula_structural   ZnAg3P3O13
_chemical_formula_sum   'Zn2 Ag6 P6 O26'
_cell_volume   543.57893673
_cell_formula_units_Z   2
loop_
 _symmetry_equiv_pos_site_id
 _symmetry_equiv_pos_as_xyz
  1  'x, y, z'
loop_
 _atom_site_type_symbol
 _atom_site_label
 _atom_site_symmetry_multiplicity
 _atom_site_fract_x
 _atom_site_fract_y
 _atom_site_fract_z
 _atom_site_occupancy
  Zn  Zn0  1  0.750000  0.604496  0.144123  1
  Zn  Zn1  1  0.250000  0.395504  0.855877  1
  Ag  Ag2  1  0.250000  0.328547  0.219676  1
  Ag  Ag3  1  0.750000  0.671453  0.780324  1
  Ag  Ag4  1  0.250000  0.744824  0.433957  1
  Ag  Ag5  1  0.500000  -0.000000  0.000000  1
  Ag  Ag6  1  0.750000  0.255176  0.566043  1
  Ag  Ag7  1  0.000000  -0.000000  0.000000  1
  P  P8  1  0.250000  0.224817  0.501207  1
  P  P9  1  0.750000  0.775183  0.498793  1
  P  P10  1  0.250000  0.739130  0.756993  1
  P  P11  1  0.750000  0.260870  0.243007  1
  P  P12  1  0.750000  0.331278  0.881795  1
  P  P13  1  0.250000  0.668722  0.118205  1
  O  O14  1  0.750000  0.388429  0.746916  1
  O  O15  1  0.567950  0.750351  0.402572  1
  O  O16  1  0.250000  0.807171  0.630151  1
  O  O17  1  0.540751  0.234279  0.892101  1
  O  O18  1  0.750000  0.622429  0.578589  1
  O  O19  1  0.750000  0.889835  0.908361  1
  O  O20  1  0.250000  0.377571  0.421411  1
  O  O21  1  0.040751  0.765721  0.107899  1
  O  O22  1  0.250000  0.059774  0.413154  1
  O  O23  1  0.750000  0.940226  0.586846  1
  O  O24  1  0.071555  0.612118  0.781797  1
  O  O25  1  0.250000  0.110165  0.091639  1
  O  O26  1  0.571555  0.387882  0.218203  1
  O  O27  1  0.750000  0.500629  0.969439  1
  O  O28  1  0.750000  0.192829  0.369849  1
  O  O29  1  0.459249  0.765721  0.107899  1
  O  O30  1  0.932050  0.750351  0.402572  1
  O  O31  1  0.432050  0.249649  0.597428  1
  O  O32  1  0.428445  0.612118  0.781797  1
  O  O33  1  0.250000  0.611571  0.253084  1
  O  O34  1  0.750000  0.102610  0.143542  1
  O  O35  1  0.250000  0.897390  0.856458  1
  O  O36  1  0.928445  0.387882  0.218203  1
  O  O37  1  0.959249  0.234279  0.892101  1
  O  O38  1  0.067950  0.249649  0.597428  1
  O  O39  1  0.250000  0.499371  0.030561  1
