# generated using pymatgen
data_Sr3CaCo2S2O5
_symmetry_space_group_name_H-M   'P 1'
_cell_length_a   3.91621452
_cell_length_b   3.91621452
_cell_length_c   14.74360943
_cell_angle_alpha   97.63203676
_cell_angle_beta   97.63203676
_cell_angle_gamma   90.00000000
_symmetry_Int_Tables_number   1
_chemical_formula_structural   Sr3CaCo2S2O5
_chemical_formula_sum   'Sr3 Ca1 Co2 S2 O5'
_cell_volume   222.09460542
_cell_formula_units_Z   1
loop_
 _symmetry_equiv_pos_site_id
 _symmetry_equiv_pos_as_xyz
  1  'x, y, z'
loop_
 _atom_site_type_symbol
 _atom_site_label
 _atom_site_symmetry_multiplicity
 _atom_site_fract_x
 _atom_site_fract_y
 _atom_site_fract_z
 _atom_site_occupancy
  Sr  Sr0  1  0.500000  0.500000  0.000000  1
  Sr  Sr1  1  0.630782  0.630782  0.261563  1
  Sr  Sr2  1  0.369218  0.369218  0.738437  1
  Ca  Ca3  1  0.750000  0.250000  0.500000  1
  Co  Co4  1  0.065442  0.065442  0.130883  1
  Co  Co5  1  0.934558  0.934558  0.869117  1
  S  S6  1  0.184930  0.184930  0.369859  1
  S  S7  1  0.815070  0.815070  0.630141  1
  O  O8  1  0.074834  0.574834  0.149669  1
  O  O9  1  0.575336  0.075336  0.150673  1
  O  O10  1  0.924664  0.424664  0.849327  1
  O  O11  1  0.425166  0.925166  0.850331  1
  O  O12  1  0.000000  0.000000  0.000000  1
