# generated using pymatgen
data_Mg3Bi2O7
_symmetry_space_group_name_H-M   'P 1'
_cell_length_a   5.64848500
_cell_length_b   5.68205176
_cell_length_c   10.19431199
_cell_angle_alpha   106.18187218
_cell_angle_beta   90.00000000
_cell_angle_gamma   90.00000000
_symmetry_Int_Tables_number   1
_chemical_formula_structural   Mg3Bi2O7
_chemical_formula_sum   'Mg6 Bi4 O14'
_cell_volume   314.22378514
_cell_formula_units_Z   2
loop_
 _symmetry_equiv_pos_site_id
 _symmetry_equiv_pos_as_xyz
  1  'x, y, z'
loop_
 _atom_site_type_symbol
 _atom_site_label
 _atom_site_symmetry_multiplicity
 _atom_site_fract_x
 _atom_site_fract_y
 _atom_site_fract_z
 _atom_site_occupancy
  Mg  Mg0  1  0.740681  0.738822  1.000000  1
  Mg  Mg1  1  0.240681  0.261178  0.000000  1
  Mg  Mg2  1  0.792727  0.591403  0.587678  1
  Mg  Mg3  1  0.292727  0.408597  0.412322  1
  Mg  Mg4  1  0.792727  0.003724  0.412322  1
  Mg  Mg5  1  0.292727  0.996276  0.587678  1
  Bi  Bi6  1  0.748378  0.366969  0.209335  1
  Bi  Bi7  1  0.248378  0.633031  0.790665  1
  Bi  Bi8  1  0.248378  0.842367  0.209335  1
  Bi  Bi9  1  0.748378  0.157633  0.790665  1
  O  O10  1  0.659019  0.921633  0.581862  1
  O  O11  1  0.159019  0.078367  0.418138  1
  O  O12  1  0.159019  0.660227  0.581862  1
  O  O13  1  0.659019  0.339773  0.418138  1
  O  O14  1  0.079498  0.260892  0.708430  1
  O  O15  1  0.579498  0.739108  0.291570  1
  O  O16  1  0.579498  0.447538  0.708430  1
  O  O17  1  0.079498  0.552462  0.291570  1
  O  O18  1  0.904634  0.837628  0.845994  1
  O  O19  1  0.404634  0.162372  0.154006  1
  O  O20  1  0.910809  0.417280  0.000000  1
  O  O21  1  0.410809  0.582720  1.000000  1
  O  O22  1  0.904634  0.991633  0.154006  1
  O  O23  1  0.404634  0.008367  0.845994  1
