# generated using pymatgen
data_CaCuBi2O7
_symmetry_space_group_name_H-M   'P 1'
_cell_length_a   9.14798609
_cell_length_b   10.40008673
_cell_length_c   11.53457735
_cell_angle_alpha   96.46033669
_cell_angle_beta   90.00000000
_cell_angle_gamma   90.00000000
_symmetry_Int_Tables_number   1
_chemical_formula_structural   CaCuBi2O7
_chemical_formula_sum   'Ca6 Cu6 Bi12 O42'
_cell_volume   1090.42944862
_cell_formula_units_Z   6
loop_
 _symmetry_equiv_pos_site_id
 _symmetry_equiv_pos_as_xyz
  1  'x, y, z'
loop_
 _atom_site_type_symbol
 _atom_site_label
 _atom_site_symmetry_multiplicity
 _atom_site_fract_x
 _atom_site_fract_y
 _atom_site_fract_z
 _atom_site_occupancy
  Ca  Ca0  1  0.475662  0.174679  0.583140  1
  Ca  Ca1  1  0.966093  0.500000  0.750000  1
  Ca  Ca2  1  0.475662  0.825321  0.916860  1
  Ca  Ca3  1  0.033907  0.500000  0.250000  1
  Ca  Ca4  1  0.524338  0.825321  0.416860  1
  Ca  Ca5  1  0.524338  0.174679  0.083140  1
  Cu  Cu6  1  0.900968  0.783361  0.408459  1
  Cu  Cu7  1  0.099031  0.216639  0.591541  1
  Cu  Cu8  1  0.402626  0.500000  0.250000  1
  Cu  Cu9  1  0.900968  0.216639  0.091541  1
  Cu  Cu10  1  0.597374  0.500000  0.750000  1
  Cu  Cu11  1  0.099031  0.783361  0.908459  1
  Bi  Bi12  1  0.185037  0.184821  0.312162  1
  Bi  Bi13  1  0.774716  0.142711  0.381091  1
  Bi  Bi14  1  0.225284  0.142711  0.881091  1
  Bi  Bi15  1  0.814963  0.184821  0.812162  1
  Bi  Bi16  1  0.301538  0.494481  0.974780  1
  Bi  Bi17  1  0.774716  0.857289  0.118909  1
  Bi  Bi18  1  0.698462  0.494481  0.474780  1
  Bi  Bi19  1  0.225284  0.857289  0.618909  1
  Bi  Bi20  1  0.301538  0.505519  0.525220  1
  Bi  Bi21  1  0.698462  0.505519  0.025220  1
  Bi  Bi22  1  0.814963  0.815179  0.687838  1
  Bi  Bi23  1  0.185037  0.815179  0.187838  1
  O  O24  1  0.746473  0.253553  0.994644  1
  O  O25  1  0.768591  0.846674  0.301986  1
  O  O26  1  0.898009  0.000000  0.750000  1
  O  O27  1  0.888227  0.532532  0.106796  1
  O  O28  1  0.374643  0.965809  0.539197  1
  O  O29  1  0.946622  0.274018  0.694627  1
  O  O30  1  0.354099  0.295340  0.961771  1
  O  O31  1  0.111773  0.532532  0.606796  1
  O  O32  1  0.745285  0.452487  0.847785  1
  O  O33  1  0.374643  0.034191  0.960803  1
  O  O34  1  0.745285  0.547513  0.652215  1
  O  O35  1  0.479383  0.558956  0.880065  1
  O  O36  1  0.995616  0.831668  0.051642  1
  O  O37  1  0.053378  0.274018  0.194628  1
  O  O38  1  0.645901  0.704660  0.038229  1
  O  O39  1  0.354099  0.704660  0.538229  1
  O  O40  1  0.946622  0.725982  0.805373  1
  O  O41  1  0.625357  0.034191  0.460803  1
  O  O42  1  0.253527  0.253553  0.494644  1
  O  O43  1  0.520617  0.441045  0.119935  1
  O  O44  1  0.388229  0.813778  0.253824  1
  O  O45  1  0.254715  0.547513  0.152215  1
  O  O46  1  0.004384  0.831668  0.551642  1
  O  O47  1  0.254715  0.452487  0.347785  1
  O  O48  1  0.888227  0.467468  0.393204  1
  O  O49  1  0.520617  0.558956  0.380065  1
  O  O50  1  0.111773  0.467468  0.893204  1
  O  O51  1  0.611771  0.813778  0.753824  1
  O  O52  1  0.611771  0.186222  0.746176  1
  O  O53  1  0.004384  0.168332  0.948358  1
  O  O54  1  0.053378  0.725982  0.305372  1
  O  O55  1  0.746473  0.746447  0.505356  1
  O  O56  1  0.101991  0.000000  0.250000  1
  O  O57  1  0.231409  0.846674  0.801986  1
  O  O58  1  0.625357  0.965809  0.039197  1
  O  O59  1  0.995616  0.168332  0.448358  1
  O  O60  1  0.253527  0.746447  0.005356  1
  O  O61  1  0.768591  0.153326  0.198014  1
  O  O62  1  0.479383  0.441045  0.619935  1
  O  O63  1  0.645901  0.295340  0.461771  1
  O  O64  1  0.231409  0.153326  0.698014  1
  O  O65  1  0.388229  0.186222  0.246176  1
