# generated using pymatgen
data_MgCu3(MoO3)4
_symmetry_space_group_name_H-M   'P 1'
_cell_length_a   6.65824776
_cell_length_b   6.62478981
_cell_length_c   6.63229550
_cell_angle_alpha   109.34689801
_cell_angle_beta   109.59737605
_cell_angle_gamma   109.61993533
_symmetry_Int_Tables_number   1
_chemical_formula_structural   MgCu3(MoO3)4
_chemical_formula_sum   'Mg1 Cu3 Mo4 O12'
_cell_volume   224.78235882
_cell_formula_units_Z   1
loop_
 _symmetry_equiv_pos_site_id
 _symmetry_equiv_pos_as_xyz
  1  'x, y, z'
loop_
 _atom_site_type_symbol
 _atom_site_label
 _atom_site_symmetry_multiplicity
 _atom_site_fract_x
 _atom_site_fract_y
 _atom_site_fract_z
 _atom_site_occupancy
  Mg  Mg0  1  0.000000  0.000000  0.000000  1
  Cu  Cu1  1  0.499999  0.500001  0.000001  1
  Cu  Cu2  1  0.999999  0.499999  0.499999  1
  Cu  Cu3  1  0.500001  0.000001  0.500000  1
  Mo  Mo4  1  0.000000  1.000000  0.500000  1
  Mo  Mo5  1  1.000000  0.500000  0.000000  1
  Mo  Mo6  1  0.500000  0.500000  0.500000  1
  Mo  Mo7  1  0.500000  1.000000  1.000000  1
  O  O8  1  0.829672  0.301602  0.133302  1
  O  O9  1  0.170328  0.698398  0.866699  1
  O  O10  1  0.834992  0.701191  0.526348  1
  O  O11  1  0.305462  0.470243  0.172517  1
  O  O12  1  0.472404  0.170365  0.304480  1
  O  O13  1  0.133195  0.824700  0.299021  1
  O  O14  1  0.695872  0.866182  0.169646  1
  O  O15  1  0.527596  0.829635  0.695520  1
  O  O16  1  0.165008  0.298808  0.473651  1
  O  O17  1  0.694538  0.529757  0.827483  1
  O  O18  1  0.866804  0.175301  0.700979  1
  O  O19  1  0.304128  0.133818  0.830355  1
