# generated using pymatgen
data_YCu3(AgO3)4
_symmetry_space_group_name_H-M   'P 1'
_cell_length_a   6.72919164
_cell_length_b   6.72811901
_cell_length_c   6.73064422
_cell_angle_alpha   109.49526706
_cell_angle_beta   109.49157099
_cell_angle_gamma   109.45578824
_symmetry_Int_Tables_number   1
_chemical_formula_structural   YCu3(AgO3)4
_chemical_formula_sum   'Y1 Cu3 Ag4 O12'
_cell_volume   234.49625884
_cell_formula_units_Z   1
loop_
 _symmetry_equiv_pos_site_id
 _symmetry_equiv_pos_as_xyz
  1  'x, y, z'
loop_
 _atom_site_type_symbol
 _atom_site_label
 _atom_site_symmetry_multiplicity
 _atom_site_fract_x
 _atom_site_fract_y
 _atom_site_fract_z
 _atom_site_occupancy
  Y  Y0  1  0.999995  0.999992  0.999995  1
  Cu  Cu1  1  0.499999  0.999997  0.500001  1
  Cu  Cu2  1  0.499999  0.499997  0.999996  1
  Cu  Cu3  1  0.000000  0.499998  0.500000  1
  Ag  Ag4  1  0.500002  0.000004  0.000002  1
  Ag  Ag5  1  0.999994  0.999998  0.499997  1
  Ag  Ag6  1  0.000003  0.499998  0.000001  1
  Ag  Ag7  1  0.499995  0.499994  0.499995  1
  O  O8  1  0.844676  0.309788  0.155124  1
  O  O9  1  0.155328  0.690219  0.844881  1
  O  O10  1  0.844834  0.689745  0.534848  1
  O  O11  1  0.310021  0.465220  0.155066  1
  O  O12  1  0.465134  0.155233  0.310369  1
  O  O13  1  0.155001  0.844723  0.309841  1
  O  O14  1  0.690012  0.845148  0.155168  1
  O  O15  1  0.534867  0.844768  0.689631  1
  O  O16  1  0.155167  0.310258  0.465159  1
  O  O17  1  0.689986  0.534786  0.844938  1
  O  O18  1  0.845001  0.155278  0.690161  1
  O  O19  1  0.309988  0.154857  0.844827  1
