# generated using pymatgen
data_Ca2TaCoO6
_symmetry_space_group_name_H-M   'P 1'
_cell_length_a   5.47816604
_cell_length_b   5.65828527
_cell_length_c   7.72227742
_cell_angle_alpha   90.00000000
_cell_angle_beta   90.00000000
_cell_angle_gamma   89.41136926
_symmetry_Int_Tables_number   1
_chemical_formula_structural   Ca2TaCoO6
_chemical_formula_sum   'Ca4 Ta2 Co2 O12'
_cell_volume   239.35500346
_cell_formula_units_Z   2
loop_
 _symmetry_equiv_pos_site_id
 _symmetry_equiv_pos_as_xyz
  1  'x, y, z'
loop_
 _atom_site_type_symbol
 _atom_site_label
 _atom_site_symmetry_multiplicity
 _atom_site_fract_x
 _atom_site_fract_y
 _atom_site_fract_z
 _atom_site_occupancy
  Ca  Ca0  1  0.018208  0.955306  0.250000  1
  Ca  Ca1  1  0.487671  0.431266  0.250000  1
  Ca  Ca2  1  0.512329  0.568734  0.750000  1
  Ca  Ca3  1  0.981792  0.044694  0.750000  1
  Ta  Ta4  1  0.000000  0.500000  0.000000  1
  Ta  Ta5  1  0.000000  0.500000  0.500000  1
  Co  Co6  1  0.500000  0.000000  0.000000  1
  Co  Co7  1  0.500000  0.000000  0.500000  1
  O  O8  1  0.802629  0.788663  0.548770  1
  O  O9  1  0.290087  0.697654  0.455593  1
  O  O10  1  0.197371  0.211337  0.451230  1
  O  O11  1  0.709913  0.302346  0.955593  1
  O  O12  1  0.095011  0.470407  0.750000  1
  O  O13  1  0.709913  0.302346  0.544407  1
  O  O14  1  0.290087  0.697654  0.044407  1
  O  O15  1  0.802629  0.788663  0.951230  1
  O  O16  1  0.578470  0.015266  0.250000  1
  O  O17  1  0.197371  0.211337  0.048770  1
  O  O18  1  0.421530  0.984734  0.750000  1
  O  O19  1  0.904989  0.529593  0.250000  1
