# generated using pymatgen
data_Sn(GeO3)2
_symmetry_space_group_name_H-M   'P 1'
_cell_length_a   5.63226388
_cell_length_b   9.16107563
_cell_length_c   10.01726525
_cell_angle_alpha   90.00000000
_cell_angle_beta   104.86482235
_cell_angle_gamma   90.00000000
_symmetry_Int_Tables_number   1
_chemical_formula_structural   Sn(GeO3)2
_chemical_formula_sum   'Sn4 Ge8 O24'
_cell_volume   499.56921498
_cell_formula_units_Z   4
loop_
 _symmetry_equiv_pos_site_id
 _symmetry_equiv_pos_as_xyz
  1  'x, y, z'
loop_
 _atom_site_type_symbol
 _atom_site_label
 _atom_site_symmetry_multiplicity
 _atom_site_fract_x
 _atom_site_fract_y
 _atom_site_fract_z
 _atom_site_occupancy
  Sn  Sn0  1  0.993492  0.644954  0.248964  1
  Sn  Sn1  1  0.506508  0.144954  0.751036  1
  Sn  Sn2  1  0.006508  0.355046  0.751036  1
  Sn  Sn3  1  0.493492  0.855046  0.248964  1
  Ge  Ge4  1  0.819794  0.334508  0.050711  1
  Ge  Ge5  1  0.680206  0.834508  0.949289  1
  Ge  Ge6  1  0.180206  0.665492  0.949289  1
  Ge  Ge7  1  0.319794  0.165492  0.050711  1
  Ge  Ge8  1  0.189486  0.336984  0.453896  1
  Ge  Ge9  1  0.310514  0.836984  0.546104  1
  Ge  Ge10  1  0.810514  0.663016  0.546104  1
  Ge  Ge11  1  0.689486  0.163016  0.453896  1
  O  O12  1  0.403757  0.244922  0.384528  1
  O  O13  1  0.096243  0.744922  0.615472  1
  O  O14  1  0.596243  0.755078  0.615472  1
  O  O15  1  0.903757  0.255078  0.384528  1
  O  O16  1  0.130855  0.287399  0.112440  1
  O  O17  1  0.369145  0.787399  0.887560  1
  O  O18  1  0.869145  0.712601  0.887561  1
  O  O19  1  0.630855  0.212601  0.112439  1
  O  O20  1  0.682833  0.978626  0.407003  1
  O  O21  1  0.817167  0.478626  0.592997  1
  O  O22  1  0.317167  0.021374  0.592997  1
  O  O23  1  0.182833  0.521374  0.407003  1
  O  O24  1  0.288558  0.986777  0.104113  1
  O  O25  1  0.211442  0.486777  0.895887  1
  O  O26  1  0.711442  0.013223  0.895887  1
  O  O27  1  0.788558  0.513223  0.104113  1
  O  O28  1  0.738901  0.319294  0.863091  1
  O  O29  1  0.761099  0.819294  0.136909  1
  O  O30  1  0.261099  0.680706  0.136909  1
  O  O31  1  0.238901  0.180706  0.863091  1
  O  O32  1  0.276549  0.318827  0.641004  1
  O  O33  1  0.223451  0.818827  0.358996  1
  O  O34  1  0.723451  0.681173  0.358996  1
  O  O35  1  0.776549  0.181173  0.641004  1
