# generated using pymatgen
data_MgTe2O7
_symmetry_space_group_name_H-M   'P 1'
_cell_length_a   6.60675626
_cell_length_b   6.84738066
_cell_length_c   8.26428342
_cell_angle_alpha   118.16728737
_cell_angle_beta   90.00000000
_cell_angle_gamma   90.00000000
_symmetry_Int_Tables_number   1
_chemical_formula_structural   MgTe2O7
_chemical_formula_sum   'Mg2 Te4 O14'
_cell_volume   329.59172009
_cell_formula_units_Z   2
loop_
 _symmetry_equiv_pos_site_id
 _symmetry_equiv_pos_as_xyz
  1  'x, y, z'
loop_
 _atom_site_type_symbol
 _atom_site_label
 _atom_site_symmetry_multiplicity
 _atom_site_fract_x
 _atom_site_fract_y
 _atom_site_fract_z
 _atom_site_occupancy
  Mg  Mg0  1  0.885457  0.585918  0.647094  1
  Mg  Mg1  1  0.385457  0.414082  0.352906  1
  Te  Te2  1  0.878571  0.255147  0.180127  1
  Te  Te3  1  0.378571  0.744853  0.819873  1
  Te  Te4  1  0.300971  0.853702  0.270987  1
  Te  Te5  1  0.800971  0.146298  0.729013  1
  O  O6  1  0.573638  0.081992  0.593943  1
  O  O7  1  0.073637  0.918008  0.406057  1
  O  O8  1  0.227443  0.574517  0.607420  1
  O  O9  1  0.727443  0.425483  0.392580  1
  O  O10  1  0.971894  0.343966  0.707828  1
  O  O11  1  0.471894  0.656034  0.292172  1
  O  O12  1  0.620010  0.596970  0.774396  1
  O  O13  1  0.120010  0.403030  0.225604  1
  O  O14  1  0.928115  0.910373  0.732209  1
  O  O15  1  0.428115  0.089627  0.267791  1
  O  O16  1  0.748749  0.318821  0.999775  1
  O  O17  1  0.248749  0.681179  0.000225  1
  O  O18  1  0.890209  0.963584  0.110602  1
  O  O19  1  0.390209  0.036416  0.889398  1
