# generated using pymatgen
data_Ca3(CoN2)2
_symmetry_space_group_name_H-M   'P 1'
_cell_length_a   8.61342146
_cell_length_b   8.56922742
_cell_length_c   11.72206554
_cell_angle_alpha   90.00199536
_cell_angle_beta   90.00407890
_cell_angle_gamma   89.97448899
_symmetry_Int_Tables_number   1
_chemical_formula_structural   Ca3(CoN2)2
_chemical_formula_sum   'Ca12 Co8 N16'
_cell_volume   865.20987457
_cell_formula_units_Z   4
loop_
 _symmetry_equiv_pos_site_id
 _symmetry_equiv_pos_as_xyz
  1  'x, y, z'
loop_
 _atom_site_type_symbol
 _atom_site_label
 _atom_site_symmetry_multiplicity
 _atom_site_fract_x
 _atom_site_fract_y
 _atom_site_fract_z
 _atom_site_occupancy
  Ca  Ca0  1  0.893173  0.112868  0.121027  1
  Ca  Ca1  1  0.132409  0.920214  0.914500  1
  Ca  Ca2  1  0.097476  0.595690  0.093048  1
  Ca  Ca3  1  0.597449  0.095852  0.906943  1
  Ca  Ca4  1  0.632367  0.079785  0.585565  1
  Ca  Ca5  1  0.393184  0.612942  0.878855  1
  Ca  Ca6  1  0.097520  0.904118  0.593125  1
  Ca  Ca7  1  0.597578  0.404239  0.406900  1
  Ca  Ca8  1  0.632420  0.420132  0.085404  1
  Ca  Ca9  1  0.132356  0.579847  0.414521  1
  Ca  Ca10  1  0.893159  0.387113  0.621138  1
  Ca  Ca11  1  0.393257  0.887112  0.378987  1
  Co  Co12  1  0.392373  0.565584  0.228707  1
  Co  Co13  1  0.576858  0.365268  0.745057  1
  Co  Co14  1  0.892404  0.434429  0.271272  1
  Co  Co15  1  0.392457  0.934497  0.728695  1
  Co  Co16  1  0.077156  0.865303  0.254852  1
  Co  Co17  1  0.076812  0.634691  0.755027  1
  Co  Co18  1  0.892456  0.065492  0.771364  1
  Co  Co19  1  0.577055  0.134673  0.245021  1
  N  N20  1  0.074593  0.610489  0.615152  1
  N  N21  1  0.408480  0.606848  0.366462  1
  N  N22  1  0.408525  0.893197  0.866490  1
  N  N23  1  0.615807  0.142940  0.106634  1
  N  N24  1  0.115745  0.642975  0.893467  1
  N  N25  1  0.908516  0.393084  0.133522  1
  N  N26  1  0.574570  0.110550  0.384984  1
  N  N27  1  0.574650  0.389522  0.884806  1
  N  N28  1  0.074534  0.889440  0.115065  1
  N  N29  1  0.385162  0.937520  0.587812  1
  N  N30  1  0.115842  0.857178  0.393411  1
  N  N31  1  0.885055  0.062484  0.912172  1
  N  N32  1  0.908480  0.106860  0.633551  1
  N  N33  1  0.885180  0.437649  0.412219  1
  N  N34  1  0.615726  0.357103  0.606511  1
  N  N35  1  0.385174  0.562310  0.087734  1
