# generated using pymatgen
data_MgTaBiO5
_symmetry_space_group_name_H-M   'P 1'
_cell_length_a   5.25515322
_cell_length_b   10.43415127
_cell_length_c   16.21017991
_cell_angle_alpha   90.00000000
_cell_angle_beta   90.00000000
_cell_angle_gamma   90.00000000
_symmetry_Int_Tables_number   1
_chemical_formula_structural   MgTaBiO5
_chemical_formula_sum   'Mg8 Ta8 Bi8 O40'
_cell_volume   888.85382669
_cell_formula_units_Z   8
loop_
 _symmetry_equiv_pos_site_id
 _symmetry_equiv_pos_as_xyz
  1  'x, y, z'
loop_
 _atom_site_type_symbol
 _atom_site_label
 _atom_site_symmetry_multiplicity
 _atom_site_fract_x
 _atom_site_fract_y
 _atom_site_fract_z
 _atom_site_occupancy
  Mg  Mg0  1  0.522270  0.374088  0.446384  1
  Mg  Mg1  1  0.022270  0.125912  0.446384  1
  Mg  Mg2  1  0.022270  0.625912  0.053616  1
  Mg  Mg3  1  0.977730  0.374088  0.946384  1
  Mg  Mg4  1  0.477730  0.125912  0.946384  1
  Mg  Mg5  1  0.977730  0.874088  0.553616  1
  Mg  Mg6  1  0.477730  0.625912  0.553616  1
  Mg  Mg7  1  0.522270  0.874088  0.053616  1
  Ta  Ta8  1  0.999563  0.376298  0.582856  1
  Ta  Ta9  1  0.500437  0.876298  0.417144  1
  Ta  Ta10  1  0.000437  0.623702  0.417144  1
  Ta  Ta11  1  0.499563  0.123702  0.582856  1
  Ta  Ta12  1  0.000437  0.123702  0.082856  1
  Ta  Ta13  1  0.999563  0.876298  0.917144  1
  Ta  Ta14  1  0.500437  0.376298  0.082856  1
  Ta  Ta15  1  0.499563  0.623702  0.917144  1
  Bi  Bi16  1  0.995060  0.859043  0.223430  1
  Bi  Bi17  1  0.004940  0.140958  0.776570  1
  Bi  Bi18  1  0.504940  0.359042  0.776570  1
  Bi  Bi19  1  0.004940  0.640957  0.723430  1
  Bi  Bi20  1  0.495060  0.140958  0.276570  1
  Bi  Bi21  1  0.495060  0.640957  0.223430  1
  Bi  Bi22  1  0.504940  0.859043  0.723430  1
  Bi  Bi23  1  0.995060  0.359042  0.276570  1
  O  O24  1  0.885675  0.315260  0.685874  1
  O  O25  1  0.265074  0.023661  0.039689  1
  O  O26  1  0.234926  0.523661  0.960311  1
  O  O27  1  0.331995  0.794791  0.154282  1
  O  O28  1  0.168005  0.294791  0.845718  1
  O  O29  1  0.885675  0.815260  0.814126  1
  O  O30  1  0.168005  0.794791  0.654282  1
  O  O31  1  0.614325  0.815260  0.314126  1
  O  O32  1  0.265074  0.523661  0.460311  1
  O  O33  1  0.114325  0.684740  0.314126  1
  O  O34  1  0.614325  0.315260  0.185874  1
  O  O35  1  0.750674  0.225106  0.523194  1
  O  O36  1  0.765074  0.976339  0.460311  1
  O  O37  1  0.668005  0.705209  0.654282  1
  O  O38  1  0.205863  0.013738  0.873840  1
  O  O39  1  0.765074  0.476339  0.039689  1
  O  O40  1  0.114325  0.184740  0.185874  1
  O  O41  1  0.831995  0.205209  0.345718  1
  O  O42  1  0.250674  0.774894  0.976806  1
  O  O43  1  0.234926  0.023661  0.539689  1
  O  O44  1  0.249326  0.774894  0.476806  1
  O  O45  1  0.794137  0.986262  0.126160  1
  O  O46  1  0.668005  0.205209  0.845718  1
  O  O47  1  0.705863  0.986262  0.626160  1
  O  O48  1  0.249326  0.274894  0.023194  1
  O  O49  1  0.250674  0.274894  0.523194  1
  O  O50  1  0.734926  0.476339  0.539689  1
  O  O51  1  0.734926  0.976339  0.960311  1
  O  O52  1  0.705863  0.486262  0.873840  1
  O  O53  1  0.749326  0.725106  0.476806  1
  O  O54  1  0.749326  0.225106  0.023194  1
  O  O55  1  0.750674  0.725106  0.976806  1
  O  O56  1  0.794137  0.486262  0.373840  1
  O  O57  1  0.831995  0.705209  0.154282  1
  O  O58  1  0.331995  0.294791  0.345718  1
  O  O59  1  0.205863  0.513738  0.626160  1
  O  O60  1  0.294137  0.513738  0.126160  1
  O  O61  1  0.385675  0.184740  0.685874  1
  O  O62  1  0.294137  0.013738  0.373840  1
  O  O63  1  0.385675  0.684740  0.814126  1
