# generated using pymatgen
data_Zn(BiO2)2
_symmetry_space_group_name_H-M   'P 1'
_cell_length_a   6.74430058
_cell_length_b   6.74429942
_cell_length_c   7.00972322
_cell_angle_alpha   58.68936696
_cell_angle_beta   58.68937646
_cell_angle_gamma   60.24836742
_symmetry_Int_Tables_number   1
_chemical_formula_structural   Zn(BiO2)2
_chemical_formula_sum   'Zn2 Bi4 O8'
_cell_volume   221.27901668
_cell_formula_units_Z   2
loop_
 _symmetry_equiv_pos_site_id
 _symmetry_equiv_pos_as_xyz
  1  'x, y, z'
loop_
 _atom_site_type_symbol
 _atom_site_label
 _atom_site_symmetry_multiplicity
 _atom_site_fract_x
 _atom_site_fract_y
 _atom_site_fract_z
 _atom_site_occupancy
  Zn  Zn0  1  0.125000  0.625000  0.625000  1
  Zn  Zn1  1  0.625000  0.125000  0.625000  1
  Bi  Bi2  1  0.999358  0.999358  0.000642  1
  Bi  Bi3  1  0.250642  0.250642  0.249358  1
  Bi  Bi4  1  0.625000  0.625000  0.125000  1
  Bi  Bi5  1  0.625000  0.625000  0.625000  1
  O  O6  1  0.372769  0.372769  0.417147  1
  O  O7  1  0.370360  0.845502  0.392069  1
  O  O8  1  0.372769  0.372769  0.837317  1
  O  O9  1  0.845502  0.370360  0.392069  1
  O  O10  1  0.404498  0.879640  0.857931  1
  O  O11  1  0.879640  0.404498  0.857931  1
  O  O12  1  0.877231  0.877231  0.412683  1
  O  O13  1  0.877231  0.877231  0.832853  1
