# generated using pymatgen
data_Ca(Sn2O3)2
_symmetry_space_group_name_H-M   'P 1'
_cell_length_a   3.39922929
_cell_length_b   5.74170559
_cell_length_c   17.65925938
_cell_angle_alpha   90.00000000
_cell_angle_beta   90.00000000
_cell_angle_gamma   107.21823548
_symmetry_Int_Tables_number   1
_chemical_formula_structural   Ca(Sn2O3)2
_chemical_formula_sum   'Ca2 Sn8 O12'
_cell_volume   329.21604631
_cell_formula_units_Z   2
loop_
 _symmetry_equiv_pos_site_id
 _symmetry_equiv_pos_as_xyz
  1  'x, y, z'
loop_
 _atom_site_type_symbol
 _atom_site_label
 _atom_site_symmetry_multiplicity
 _atom_site_fract_x
 _atom_site_fract_y
 _atom_site_fract_z
 _atom_site_occupancy
  Ca  Ca0  1  0.677307  0.354613  0.750000  1
  Ca  Ca1  1  0.322693  0.645387  0.250000  1
  Sn  Sn2  1  0.856853  0.713709  0.053681  1
  Sn  Sn3  1  0.404310  0.808620  0.640178  1
  Sn  Sn4  1  0.143145  0.286290  0.946319  1
  Sn  Sn5  1  0.595690  0.191380  0.359823  1
  Sn  Sn6  1  0.856853  0.713709  0.446319  1
  Sn  Sn7  1  0.143145  0.286290  0.553681  1
  Sn  Sn8  1  0.595690  0.191380  0.140177  1
  Sn  Sn9  1  0.404310  0.808620  0.859822  1
  O  O10  1  0.499999  -0.000000  0.500000  1
  O  O11  1  0.499999  -0.000000  0.000000  1
  O  O12  1  0.044130  0.088260  0.837304  1
  O  O13  1  0.955870  0.911740  0.162697  1
  O  O14  1  0.955870  0.911740  0.337303  1
  O  O15  1  0.044130  0.088260  0.662697  1
  O  O16  1  0.768184  0.536371  0.873072  1
  O  O17  1  0.231815  0.463630  0.126928  1
  O  O18  1  0.231815  0.463630  0.373072  1
  O  O19  1  0.768184  0.536371  0.626928  1
  O  O20  1  0.334386  0.668771  0.750000  1
  O  O21  1  0.665612  0.331228  0.250000  1
