# generated using pymatgen
data_CaPr(SbO3)2
_symmetry_space_group_name_H-M   'P 1'
_cell_length_a   5.77477659
_cell_length_b   6.09325709
_cell_length_c   8.36125408
_cell_angle_alpha   89.99998479
_cell_angle_beta   89.99994058
_cell_angle_gamma   89.99990101
_symmetry_Int_Tables_number   1
_chemical_formula_structural   CaPr(SbO3)2
_chemical_formula_sum   'Ca2 Pr2 Sb4 O12'
_cell_volume   294.20910619
_cell_formula_units_Z   2
loop_
 _symmetry_equiv_pos_site_id
 _symmetry_equiv_pos_as_xyz
  1  'x, y, z'
loop_
 _atom_site_type_symbol
 _atom_site_label
 _atom_site_symmetry_multiplicity
 _atom_site_fract_x
 _atom_site_fract_y
 _atom_site_fract_z
 _atom_site_occupancy
  Ca  Ca0  1  0.487672  0.444549  0.750000  1
  Ca  Ca1  1  0.987672  0.055453  0.250000  1
  Pr  Pr2  1  0.023892  0.936883  0.750000  1
  Pr  Pr3  1  0.523891  0.563117  0.250000  1
  Sb  Sb4  1  0.007785  0.492697  0.996369  1
  Sb  Sb5  1  0.007784  0.492696  0.503632  1
  Sb  Sb6  1  0.507784  0.007303  0.496368  1
  Sb  Sb7  1  0.507785  0.007304  0.003630  1
  O  O8  1  0.133923  0.438849  0.249999  1
  O  O9  1  0.183185  0.199594  0.933908  1
  O  O10  1  0.183184  0.199595  0.566092  1
  O  O11  1  0.297715  0.691025  0.566190  1
  O  O12  1  0.297713  0.691023  0.933810  1
  O  O13  1  0.377144  0.945177  0.250002  1
  O  O14  1  0.633923  0.061152  0.750002  1
  O  O15  1  0.683184  0.300404  0.066092  1
  O  O16  1  0.683185  0.300405  0.433908  1
  O  O17  1  0.797715  0.808975  0.066190  1
  O  O18  1  0.797713  0.808976  0.433809  1
  O  O19  1  0.877144  0.554822  0.750000  1
