# generated using pymatgen
data_Zn(MoO2)2
_symmetry_space_group_name_H-M   'P 1'
_cell_length_a   6.46042080
_cell_length_b   6.46042092
_cell_length_c   6.15863178
_cell_angle_alpha   61.53359288
_cell_angle_beta   61.53359955
_cell_angle_gamma   55.61982130
_symmetry_Int_Tables_number   1
_chemical_formula_structural   Zn(MoO2)2
_chemical_formula_sum   'Zn2 Mo4 O8'
_cell_volume   178.70236791
_cell_formula_units_Z   2
loop_
 _symmetry_equiv_pos_site_id
 _symmetry_equiv_pos_as_xyz
  1  'x, y, z'
loop_
 _atom_site_type_symbol
 _atom_site_label
 _atom_site_symmetry_multiplicity
 _atom_site_fract_x
 _atom_site_fract_y
 _atom_site_fract_z
 _atom_site_occupancy
  Zn  Zn0  1  0.125000  0.625000  0.625000  1
  Zn  Zn1  1  0.625000  0.125000  0.625000  1
  Mo  Mo2  1  0.995698  0.995698  0.004302  1
  Mo  Mo3  1  0.254302  0.254302  0.245698  1
  Mo  Mo4  1  0.625000  0.625000  0.125000  1
  Mo  Mo5  1  0.625000  0.625000  0.625000  1
  O  O6  1  0.400982  0.400982  0.348373  1
  O  O7  1  0.348016  0.851405  0.400290  1
  O  O8  1  0.400982  0.400982  0.849662  1
  O  O9  1  0.851405  0.348016  0.400290  1
  O  O10  1  0.398595  0.901984  0.849710  1
  O  O11  1  0.901984  0.398595  0.849710  1
  O  O12  1  0.849018  0.849018  0.400338  1
  O  O13  1  0.849018  0.849018  0.901627  1
