# generated using pymatgen
data_W2O5
_symmetry_space_group_name_H-M   'P 1'
_cell_length_a   5.92844415
_cell_length_b   10.33929863
_cell_length_c   3.69044855
_cell_angle_alpha   89.99986330
_cell_angle_beta   89.99965775
_cell_angle_gamma   89.96019332
_symmetry_Int_Tables_number   1
_chemical_formula_structural   W2O5
_chemical_formula_sum   'W4 O10'
_cell_volume   226.20951164
_cell_formula_units_Z   2
loop_
 _symmetry_equiv_pos_site_id
 _symmetry_equiv_pos_as_xyz
  1  'x, y, z'
loop_
 _atom_site_type_symbol
 _atom_site_label
 _atom_site_symmetry_multiplicity
 _atom_site_fract_x
 _atom_site_fract_y
 _atom_site_fract_z
 _atom_site_occupancy
  W  W0  1  0.728436  0.366473  0.012332  1
  W  W1  1  0.271552  0.633537  0.012349  1
  W  W2  1  0.228823  0.132928  0.012806  1
  W  W3  1  0.771185  0.867074  0.012836  1
  O  O4  1  0.803127  0.407631  0.498242  1
  O  O5  1  0.196872  0.592372  0.498271  1
  O  O6  1  0.303163  0.092200  0.498044  1
  O  O7  1  0.696845  0.907797  0.498063  1
  O  O8  1  0.041611  0.276654  0.987020  1
  O  O9  1  0.958389  0.723345  0.987053  1
  O  O10  1  0.542373  0.223707  0.986883  1
  O  O11  1  0.457628  0.776289  0.986899  1
  O  O12  1  0.499988  0.499997  0.004493  1
  O  O13  1  0.000008  -0.000002  0.004710  1
