# generated using pymatgen
data_CaFeF5
_symmetry_space_group_name_H-M   'P 1'
_cell_length_a   5.64381394
_cell_length_b   5.61390093
_cell_length_c   7.85147171
_cell_angle_alpha   96.68071910
_cell_angle_beta   112.03257103
_cell_angle_gamma   108.54591719
_symmetry_Int_Tables_number   1
_chemical_formula_structural   CaFeF5
_chemical_formula_sum   'Ca2 Fe2 F10'
_cell_volume   210.61614923
_cell_formula_units_Z   2
loop_
 _symmetry_equiv_pos_site_id
 _symmetry_equiv_pos_as_xyz
  1  'x, y, z'
loop_
 _atom_site_type_symbol
 _atom_site_label
 _atom_site_symmetry_multiplicity
 _atom_site_fract_x
 _atom_site_fract_y
 _atom_site_fract_z
 _atom_site_occupancy
  Ca  Ca0  1  0.297056  0.545735  0.751620  1
  Ca  Ca1  1  0.710800  0.458316  0.251411  1
  Fe  Fe2  1  0.002389  0.001452  0.000449  1
  Fe  Fe3  1  0.502573  0.001312  0.500314  1
  F  F4  1  0.338525  0.084173  0.249148  1
  F  F5  1  0.667985  0.918661  0.751165  1
  F  F6  1  0.592565  0.750970  0.380870  1
  F  F7  1  0.871384  0.210100  0.120358  1
  F  F8  1  0.750885  0.694851  0.033182  1
  F  F9  1  0.166014  0.715420  0.469206  1
  F  F10  1  0.254291  0.308848  0.969516  1
  F  F11  1  0.840622  0.286834  0.534462  1
  F  F12  1  0.126646  0.787021  0.878947  1
  F  F13  1  0.409970  0.250578  0.619082  1
