# generated using pymatgen
data_SrSb(PO4)2
_symmetry_space_group_name_H-M   'P 1'
_cell_length_a   6.24299568
_cell_length_b   6.87207210
_cell_length_c   9.46271507
_cell_angle_alpha   105.38463479
_cell_angle_beta   109.62346747
_cell_angle_gamma   98.28674075
_symmetry_Int_Tables_number   1
_chemical_formula_structural   SrSb(PO4)2
_chemical_formula_sum   'Sr2 Sb2 P4 O16'
_cell_volume   356.32612314
_cell_formula_units_Z   2
loop_
 _symmetry_equiv_pos_site_id
 _symmetry_equiv_pos_as_xyz
  1  'x, y, z'
loop_
 _atom_site_type_symbol
 _atom_site_label
 _atom_site_symmetry_multiplicity
 _atom_site_fract_x
 _atom_site_fract_y
 _atom_site_fract_z
 _atom_site_occupancy
  Sr  Sr0  1  0.277879  0.737089  0.027224  1
  Sr  Sr1  1  0.722121  0.262911  0.972776  1
  Sb  Sb2  1  0.656172  0.860667  0.531664  1
  Sb  Sb3  1  0.343828  0.139333  0.468336  1
  P  P4  1  0.391321  0.408221  0.229271  1
  P  P5  1  0.608679  0.591779  0.770729  1
  P  P6  1  0.875203  0.996898  0.275904  1
  P  P7  1  0.124797  0.003102  0.724096  1
  O  O8  1  0.846170  0.599734  0.892160  1
  O  O9  1  0.589997  0.444071  0.174166  1
  O  O10  1  0.616427  0.797881  0.721864  1
  O  O11  1  0.925333  0.124682  0.712437  1
  O  O12  1  0.410003  0.555929  0.825834  1
  O  O13  1  0.969777  0.785541  0.587373  1
  O  O14  1  0.030223  0.214459  0.412627  1
  O  O15  1  0.253953  0.994085  0.886784  1
  O  O16  1  0.383573  0.202119  0.278136  1
  O  O17  1  0.746047  0.005915  0.113216  1
  O  O18  1  0.153830  0.400266  0.107840  1
  O  O19  1  0.429853  0.590709  0.387983  1
  O  O20  1  0.570147  0.409291  0.612017  1
  O  O21  1  0.681111  0.897762  0.325399  1
  O  O22  1  0.074667  0.875318  0.287563  1
  O  O23  1  0.318889  0.102238  0.674601  1
