# generated using pymatgen
data_YVO3
_symmetry_space_group_name_H-M   'P 1'
_cell_length_a   6.14666000
_cell_length_b   6.14665967
_cell_length_c   12.05651279
_cell_angle_alpha   90.00000000
_cell_angle_beta   90.00000000
_cell_angle_gamma   120.00000176
_symmetry_Int_Tables_number   1
_chemical_formula_structural   YVO3
_chemical_formula_sum   'Y6 V6 O18'
_cell_volume   394.48518150
_cell_formula_units_Z   6
loop_
 _symmetry_equiv_pos_site_id
 _symmetry_equiv_pos_as_xyz
  1  'x, y, z'
loop_
 _atom_site_type_symbol
 _atom_site_label
 _atom_site_symmetry_multiplicity
 _atom_site_fract_x
 _atom_site_fract_y
 _atom_site_fract_z
 _atom_site_occupancy
  Y  Y0  1  0.666667  0.333333  0.229499  1
  Y  Y1  1  0.333333  0.666667  0.729499  1
  Y  Y2  1  0.666667  0.333333  0.729499  1
  Y  Y3  1  0.333333  0.666667  0.229499  1
  Y  Y4  1  0.000000  0.000000  0.773074  1
  Y  Y5  1  0.000000  0.000000  0.273074  1
  V  V6  1  0.664453  0.000000  0.497502  1
  V  V7  1  0.664453  0.664453  0.997502  1
  V  V8  1  1.000000  0.335547  0.997502  1
  V  V9  1  0.000000  0.664453  0.497502  1
  V  V10  1  0.335547  0.335547  0.497502  1
  V  V11  1  0.335547  0.000000  0.997502  1
  O  O12  1  0.666667  0.333333  0.024744  1
  O  O13  1  0.333333  0.666667  0.524744  1
  O  O14  1  0.666667  0.333333  0.524744  1
  O  O15  1  0.333333  0.666667  0.024744  1
  O  O16  1  0.000000  0.000000  0.981995  1
  O  O17  1  0.000000  0.000000  0.481995  1
  O  O18  1  0.360090  0.000000  0.838764  1
  O  O19  1  0.360090  0.360090  0.338764  1
  O  O20  1  0.000000  0.639910  0.338764  1
  O  O21  1  1.000000  0.360090  0.838764  1
  O  O22  1  0.639910  0.639910  0.838764  1
  O  O23  1  0.639910  0.000000  0.338764  1
  O  O24  1  0.307390  0.000000  0.167549  1
  O  O25  1  0.307390  0.307390  0.667549  1
  O  O26  1  1.000000  0.692610  0.667549  1
  O  O27  1  0.000000  0.307390  0.167549  1
  O  O28  1  0.692610  0.692610  0.167549  1
  O  O29  1  0.692610  0.000000  0.667549  1
