# generated using pymatgen
data_ZnCo5O7
_symmetry_space_group_name_H-M   'P 1'
_cell_length_a   2.90897177
_cell_length_b   5.07509333
_cell_length_c   17.30292806
_cell_angle_alpha   90.00000000
_cell_angle_beta   90.00000000
_cell_angle_gamma   106.65408938
_symmetry_Int_Tables_number   1
_chemical_formula_structural   ZnCo5O7
_chemical_formula_sum   'Zn2 Co10 O14'
_cell_volume   244.73293929
_cell_formula_units_Z   2
loop_
 _symmetry_equiv_pos_site_id
 _symmetry_equiv_pos_as_xyz
  1  'x, y, z'
loop_
 _atom_site_type_symbol
 _atom_site_label
 _atom_site_symmetry_multiplicity
 _atom_site_fract_x
 _atom_site_fract_y
 _atom_site_fract_z
 _atom_site_occupancy
  Zn  Zn0  1  0.808749  0.617496  0.750000  1
  Zn  Zn1  1  0.191252  0.382503  0.250000  1
  Co  Co2  1  0.282832  0.565662  0.577177  1
  Co  Co3  1  0.448345  0.896689  0.151798  1
  Co  Co4  1  0.000000  0.000000  0.500000  1
  Co  Co5  1  0.000000  0.000000  0.000000  1
  Co  Co6  1  0.551655  0.103310  0.848203  1
  Co  Co7  1  0.717168  0.434337  0.422823  1
  Co  Co8  1  0.717168  0.434337  0.077177  1
  Co  Co9  1  0.282832  0.565662  0.922823  1
  Co  Co10  1  0.551655  0.103310  0.651797  1
  Co  Co11  1  0.448345  0.896689  0.348203  1
  O  O12  1  0.638201  0.276401  0.958883  1
  O  O13  1  0.361800  0.723600  0.041117  1
  O  O14  1  0.361800  0.723600  0.458883  1
  O  O15  1  0.638201  0.276401  0.541117  1
  O  O16  1  0.177970  0.355943  0.825549  1
  O  O17  1  0.822030  0.644057  0.174451  1
  O  O18  1  0.822030  0.644057  0.325550  1
  O  O19  1  0.177970  0.355943  0.674451  1
  O  O20  1  0.929768  0.859535  0.886057  1
  O  O21  1  0.070232  0.140465  0.113943  1
  O  O22  1  0.070232  0.140465  0.386057  1
  O  O23  1  0.929768  0.859535  0.613943  1
  O  O24  1  0.457887  0.915776  0.750000  1
  O  O25  1  0.542114  0.084226  0.250000  1
