# generated using pymatgen
data_Ca2CrWO6
_symmetry_space_group_name_H-M   'P 1'
_cell_length_a   5.57407547
_cell_length_b   5.58540214
_cell_length_c   7.84138920
_cell_angle_alpha   89.49036683
_cell_angle_beta   135.43688947
_cell_angle_gamma   120.34442504
_symmetry_Int_Tables_number   1
_chemical_formula_structural   Ca2CrWO6
_chemical_formula_sum   'Ca2 Cr1 W1 O6'
_cell_volume   120.46133694
_cell_formula_units_Z   1
loop_
 _symmetry_equiv_pos_site_id
 _symmetry_equiv_pos_as_xyz
  1  'x, y, z'
loop_
 _atom_site_type_symbol
 _atom_site_label
 _atom_site_symmetry_multiplicity
 _atom_site_fract_x
 _atom_site_fract_y
 _atom_site_fract_z
 _atom_site_occupancy
  Ca  Ca0  1  0.033285  0.499466  0.267572  1
  Ca  Ca1  1  0.959829  0.466565  0.730513  1
  Cr  Cr2  1  0.996403  0.980967  0.499339  1
  W  W3  1  0.996452  0.981078  0.999374  1
  O  O4  1  0.795409  0.877523  0.147951  1
  O  O5  1  0.197702  0.081300  0.850820  1
  O  O6  1  0.470621  0.478550  0.289479  1
  O  O7  1  0.485163  0.965999  0.692167  1
  O  O8  1  0.508794  -0.002978  0.307460  1
  O  O9  1  0.521038  0.483418  0.708577  1
