# generated using pymatgen
data_Zn(NiO2)2
_symmetry_space_group_name_H-M   'P 1'
_cell_length_a   4.99807938
_cell_length_b   5.71705866
_cell_length_c   10.06749669
_cell_angle_alpha   89.92789499
_cell_angle_beta   89.90851178
_cell_angle_gamma   89.99166038
_symmetry_Int_Tables_number   1
_chemical_formula_structural   Zn(NiO2)2
_chemical_formula_sum   'Zn4 Ni8 O16'
_cell_volume   287.67120389
_cell_formula_units_Z   4
loop_
 _symmetry_equiv_pos_site_id
 _symmetry_equiv_pos_as_xyz
  1  'x, y, z'
loop_
 _atom_site_type_symbol
 _atom_site_label
 _atom_site_symmetry_multiplicity
 _atom_site_fract_x
 _atom_site_fract_y
 _atom_site_fract_z
 _atom_site_occupancy
  Zn  Zn0  1  0.840291  0.249968  0.750201  1
  Zn  Zn1  1  0.160578  0.750031  0.249906  1
  Zn  Zn2  1  0.517957  0.249968  0.249993  1
  Zn  Zn3  1  0.483238  0.750026  0.749207  1
  Ni  Ni4  1  0.511280  0.750067  0.485806  1
  Ni  Ni5  1  0.511288  0.749941  0.013028  1
  Ni  Ni6  1  0.488973  0.249944  0.513773  1
  Ni  Ni7  1  0.488195  0.250040  0.986364  1
  Ni  Ni8  1  0.000277  0.499972  0.500054  1
  Ni  Ni9  1  0.999211  0.000027  0.000237  1
  Ni  Ni10  1  0.000284  0.000064  0.500023  1
  Ni  Ni11  1  0.999219  0.499965  0.000253  1
  O  O12  1  0.865289  0.750307  0.398187  1
  O  O13  1  0.862756  0.749788  0.101540  1
  O  O14  1  0.136387  0.249691  0.601577  1
  O  O15  1  0.134308  0.250184  0.898225  1
  O  O16  1  0.193518  0.749998  0.597471  1
  O  O17  1  0.194667  0.750114  0.902772  1
  O  O18  1  0.805674  0.250028  0.402819  1
  O  O19  1  0.806421  0.249852  0.097934  1
  O  O20  1  0.670169  0.500978  0.615547  1
  O  O21  1  0.668825  0.997685  0.884731  1
  O  O22  1  0.330295  0.002640  0.384419  1
  O  O23  1  0.331138  0.499406  0.115609  1
  O  O24  1  0.330211  0.497623  0.384604  1
  O  O25  1  0.330979  0.000338  0.115438  1
  O  O26  1  0.669991  0.998799  0.615632  1
  O  O27  1  0.668581  0.502555  0.884648  1
