# generated using pymatgen
data_Mg2AgWO6
_symmetry_space_group_name_H-M   'P 1'
_cell_length_a   5.40659581
_cell_length_b   5.83907706
_cell_length_c   7.66385889
_cell_angle_alpha   95.54728958
_cell_angle_beta   131.10555665
_cell_angle_gamma   120.05164232
_symmetry_Int_Tables_number   1
_chemical_formula_structural   Mg2AgWO6
_chemical_formula_sum   'Mg2 Ag1 W1 O6'
_cell_volume   119.50761944
_cell_formula_units_Z   1
loop_
 _symmetry_equiv_pos_site_id
 _symmetry_equiv_pos_as_xyz
  1  'x, y, z'
loop_
 _atom_site_type_symbol
 _atom_site_label
 _atom_site_symmetry_multiplicity
 _atom_site_fract_x
 _atom_site_fract_y
 _atom_site_fract_z
 _atom_site_occupancy
  Mg  Mg0  1  0.009452  0.577435  0.209255  1
  Mg  Mg1  1  0.018599  0.591582  0.711532  1
  Ag  Ag2  1  0.001171  0.007425  0.494098  1
  W  W3  1  0.006463  0.984409  0.007835  1
  O  O4  1  0.672693  0.770911  0.070722  1
  O  O5  1  0.300605  0.091218  0.923239  1
  O  O6  1  0.335653  0.436776  0.255864  1
  O  O7  1  0.374564  0.770647  0.630189  1
  O  O8  1  0.533122  0.088866  0.379707  1
  O  O9  1  0.753452  0.519192  0.826986  1
