# generated using pymatgen
data_BaAlFe4O7
_symmetry_space_group_name_H-M   'P 1'
_cell_length_a   6.03158662
_cell_length_b   6.03158575
_cell_length_c   10.34820073
_cell_angle_alpha   90.00000000
_cell_angle_beta   90.00000000
_cell_angle_gamma   120.00000014
_symmetry_Int_Tables_number   1
_chemical_formula_structural   BaAlFe4O7
_chemical_formula_sum   'Ba2 Al2 Fe8 O14'
_cell_volume   326.03074090
_cell_formula_units_Z   2
loop_
 _symmetry_equiv_pos_site_id
 _symmetry_equiv_pos_as_xyz
  1  'x, y, z'
loop_
 _atom_site_type_symbol
 _atom_site_label
 _atom_site_symmetry_multiplicity
 _atom_site_fract_x
 _atom_site_fract_y
 _atom_site_fract_z
 _atom_site_occupancy
  Ba  Ba0  1  0.666667  0.333333  0.496942  1
  Ba  Ba1  1  0.333333  0.666667  0.996942  1
  Al  Al2  1  0.666667  0.333333  0.879002  1
  Al  Al3  1  0.333333  0.666667  0.379002  1
  Fe  Fe4  1  0.809757  0.190244  0.185897  1
  Fe  Fe5  1  0.619511  0.809756  0.685898  1
  Fe  Fe6  1  0.190244  0.380489  0.685898  1
  Fe  Fe7  1  0.809757  0.619511  0.185897  1
  Fe  Fe8  1  0.380488  0.190244  0.185897  1
  Fe  Fe9  1  0.190244  0.809756  0.685898  1
  Fe  Fe10  1  -0.000000  -0.000000  0.426840  1
  Fe  Fe11  1  -0.000000  -0.000000  0.926840  1
  O  O12  1  0.826459  0.173542  0.993884  1
  O  O13  1  0.652917  0.826458  0.493883  1
  O  O14  1  0.173541  0.347082  0.493883  1
  O  O15  1  0.826460  0.652918  0.993884  1
  O  O16  1  0.347082  0.173542  0.993884  1
  O  O17  1  0.173541  0.826458  0.493883  1
  O  O18  1  -0.000000  -0.000000  0.743209  1
  O  O19  1  -0.000000  -0.000000  0.243210  1
  O  O20  1  0.488484  0.511518  0.282887  1
  O  O21  1  0.976966  0.488484  0.782887  1
  O  O22  1  0.511517  0.023034  0.782887  1
  O  O23  1  0.488484  0.976966  0.282887  1
  O  O24  1  0.511518  0.488484  0.782887  1
  O  O25  1  0.023034  0.511518  0.282887  1
