# generated using pymatgen
data_CaCr3O7
_symmetry_space_group_name_H-M   'P 1'
_cell_length_a   5.39299657
_cell_length_b   10.51082713
_cell_length_c   10.74881872
_cell_angle_alpha   90.00022051
_cell_angle_beta   89.99916691
_cell_angle_gamma   90.00093032
_symmetry_Int_Tables_number   1
_chemical_formula_structural   CaCr3O7
_chemical_formula_sum   'Ca4 Cr12 O28'
_cell_volume   609.29522683
_cell_formula_units_Z   4
loop_
 _symmetry_equiv_pos_site_id
 _symmetry_equiv_pos_as_xyz
  1  'x, y, z'
loop_
 _atom_site_type_symbol
 _atom_site_label
 _atom_site_symmetry_multiplicity
 _atom_site_fract_x
 _atom_site_fract_y
 _atom_site_fract_z
 _atom_site_occupancy
  Ca  Ca0  1  0.681254  0.749999  0.930306  1
  Ca  Ca1  1  0.181268  0.250005  0.569700  1
  Ca  Ca2  1  0.318750  0.249999  0.069688  1
  Ca  Ca3  1  0.818740  0.749999  0.430308  1
  Cr  Cr4  1  0.303885  0.019886  0.303447  1
  Cr  Cr5  1  0.803867  0.980109  0.196556  1
  Cr  Cr6  1  0.696128  0.519893  0.696581  1
  Cr  Cr7  1  0.196131  0.480088  0.803482  1
  Cr  Cr8  1  0.310522  0.750000  0.223407  1
  Cr  Cr9  1  0.810491  0.250009  0.276566  1
  Cr  Cr10  1  0.689514  0.249991  0.776615  1
  Cr  Cr11  1  0.189490  0.749992  0.723420  1
  Cr  Cr12  1  0.803890  0.519894  0.196553  1
  Cr  Cr13  1  0.303868  0.480107  0.303448  1
  Cr  Cr14  1  0.196136  0.019913  0.803473  1
  Cr  Cr15  1  0.696102  0.980108  0.696574  1
  O  O16  1  0.933755  0.117035  0.722795  1
  O  O17  1  0.433794  0.882954  0.777189  1
  O  O18  1  0.066202  0.617037  0.277197  1
  O  O19  1  0.566246  0.382953  0.222810  1
  O  O20  1  0.066236  0.882953  0.277197  1
  O  O21  1  0.566210  0.117042  0.222810  1
  O  O22  1  0.933788  0.382964  0.722792  1
  O  O23  1  0.433758  0.617062  0.777190  1
  O  O24  1  0.455823  0.119740  0.716868  1
  O  O25  1  0.955831  0.880237  0.783118  1
  O  O26  1  0.544165  0.619750  0.283125  1
  O  O27  1  0.044173  0.380255  0.216882  1
  O  O28  1  0.544179  0.880262  0.283124  1
  O  O29  1  0.044163  0.119749  0.216881  1
  O  O30  1  0.455825  0.380261  0.716867  1
  O  O31  1  0.955821  0.619749  0.783114  1
  O  O32  1  0.162984  0.750005  0.564526  1
  O  O33  1  0.663003  0.250007  0.935426  1
  O  O34  1  0.837010  0.249995  0.435480  1
  O  O35  1  0.337018  0.750001  0.064537  1
  O  O36  1  0.220059  0.423260  0.948391  1
  O  O37  1  0.720058  0.576755  0.551559  1
  O  O38  1  0.779940  0.923245  0.051565  1
  O  O39  1  0.279930  0.076759  0.448441  1
  O  O40  1  0.779934  0.576754  0.051577  1
  O  O41  1  0.279938  0.423244  0.448449  1
  O  O42  1  0.220058  0.076735  0.948395  1
  O  O43  1  0.720068  0.923246  0.551571  1
