# generated using pymatgen
data_ZnCuAsO5
_symmetry_space_group_name_H-M   'P 1'
_cell_length_a   7.77097989
_cell_length_b   5.87544821
_cell_length_c   8.81300865
_cell_angle_alpha   90.00452323
_cell_angle_beta   90.20759923
_cell_angle_gamma   90.02236583
_symmetry_Int_Tables_number   1
_chemical_formula_structural   ZnCuAsO5
_chemical_formula_sum   'Zn4 Cu4 As4 O20'
_cell_volume   402.38158636
_cell_formula_units_Z   4
loop_
 _symmetry_equiv_pos_site_id
 _symmetry_equiv_pos_as_xyz
  1  'x, y, z'
loop_
 _atom_site_type_symbol
 _atom_site_label
 _atom_site_symmetry_multiplicity
 _atom_site_fract_x
 _atom_site_fract_y
 _atom_site_fract_z
 _atom_site_occupancy
  Zn  Zn0  1  0.941163  0.698151  0.055485  1
  Zn  Zn1  1  0.557687  0.301181  0.555647  1
  Zn  Zn2  1  0.442305  0.800999  0.944355  1
  Zn  Zn3  1  0.058806  0.198406  0.444510  1
  Cu  Cu4  1  0.998831  0.496447  0.746399  1
  Cu  Cu5  1  0.501177  0.503908  0.246371  1
  Cu  Cu6  1  0.498797  0.003761  0.253522  1
  Cu  Cu7  1  0.001363  0.996309  0.753709  1
  As  As8  1  0.654804  0.274328  0.907550  1
  As  As9  1  0.845709  0.725594  0.407695  1
  As  As10  1  0.154154  0.225484  0.092285  1
  As  As11  1  0.345287  0.774453  0.592388  1
  O  O12  1  0.855777  0.246882  0.812837  1
  O  O13  1  0.644082  0.753161  0.313263  1
  O  O14  1  0.355842  0.252822  0.186644  1
  O  O15  1  0.144239  0.747250  0.687065  1
  O  O16  1  0.504205  0.307354  0.768921  1
  O  O17  1  0.995506  0.692625  0.269064  1
  O  O18  1  0.004414  0.192579  0.230992  1
  O  O19  1  0.495870  0.807407  0.731169  1
  O  O20  1  0.629523  0.030193  0.011327  1
  O  O21  1  0.871343  0.970019  0.511377  1
  O  O22  1  0.128760  0.470003  0.988814  1
  O  O23  1  0.370442  0.530175  0.488817  1
  O  O24  1  0.670418  0.511235  0.022028  1
  O  O25  1  0.830425  0.488826  0.522367  1
  O  O26  1  0.169199  0.988715  0.977522  1
  O  O27  1  0.329927  0.011222  0.477907  1
  O  O28  1  0.887081  0.747951  0.838687  1
  O  O29  1  0.613065  0.252349  0.339684  1
  O  O30  1  0.386786  0.752425  0.160382  1
  O  O31  1  0.113010  0.247789  0.661214  1
