# generated using pymatgen
data_Ca2Ta2CoO8
_symmetry_space_group_name_H-M   'P 1'
_cell_length_a   5.44967685
_cell_length_b   6.42586993
_cell_length_c   9.96700633
_cell_angle_alpha   108.68152787
_cell_angle_beta   91.36972963
_cell_angle_gamma   90.08888967
_symmetry_Int_Tables_number   1
_chemical_formula_structural   Ca2Ta2CoO8
_chemical_formula_sum   'Ca4 Ta4 Co2 O16'
_cell_volume   330.53430596
_cell_formula_units_Z   2
loop_
 _symmetry_equiv_pos_site_id
 _symmetry_equiv_pos_as_xyz
  1  'x, y, z'
loop_
 _atom_site_type_symbol
 _atom_site_label
 _atom_site_symmetry_multiplicity
 _atom_site_fract_x
 _atom_site_fract_y
 _atom_site_fract_z
 _atom_site_occupancy
  Ca  Ca0  1  0.755005  0.458808  0.582845  1
  Ca  Ca1  1  0.741043  0.876641  0.417466  1
  Ca  Ca2  1  0.241360  0.538878  0.418569  1
  Ca  Ca3  1  0.254949  0.120653  0.582373  1
  Ta  Ta4  1  0.742752  0.258147  0.221436  1
  Ta  Ta5  1  0.753999  0.034822  0.779257  1
  Ta  Ta6  1  0.253353  0.740057  0.779656  1
  Ta  Ta7  1  0.242062  0.962926  0.221445  1
  Co  Co8  1  0.747150  0.638882  0.000760  1
  Co  Co9  1  0.248596  0.359610  0.000056  1
  O  O10  1  0.077838  0.191369  0.137081  1
  O  O11  1  0.419393  0.051404  0.863695  1
  O  O12  1  0.918242  0.806839  0.863612  1
  O  O13  1  0.577187  0.946181  0.137157  1
  O  O14  1  0.574101  0.410474  0.114496  1
  O  O15  1  0.923882  0.293521  0.885550  1
  O  O16  1  0.421457  0.587324  0.886843  1
  O  O17  1  0.071636  0.704867  0.115153  1
  O  O18  1  0.482682  0.243772  0.361100  1
  O  O19  1  0.014046  0.881552  0.639832  1
  O  O20  1  0.336659  0.841748  0.368969  1
  O  O21  1  0.158851  0.472150  0.632240  1
  O  O22  1  0.659378  0.155046  0.631290  1
  O  O23  1  0.837500  0.525572  0.369125  1
  O  O24  1  0.982779  0.116259  0.361086  1
  O  O25  1  0.513631  0.753614  0.639923  1
