# generated using pymatgen
data_BaVZnF7
_symmetry_space_group_name_H-M   'P 1'
_cell_length_a   5.67138000
_cell_length_b   9.70025472
_cell_length_c   10.10558011
_cell_angle_alpha   90.00000000
_cell_angle_beta   90.00000000
_cell_angle_gamma   92.82749675
_symmetry_Int_Tables_number   1
_chemical_formula_structural   BaVZnF7
_chemical_formula_sum   'Ba4 V4 Zn4 F28'
_cell_volume   555.26985079
_cell_formula_units_Z   4
loop_
 _symmetry_equiv_pos_site_id
 _symmetry_equiv_pos_as_xyz
  1  'x, y, z'
loop_
 _atom_site_type_symbol
 _atom_site_label
 _atom_site_symmetry_multiplicity
 _atom_site_fract_x
 _atom_site_fract_y
 _atom_site_fract_z
 _atom_site_occupancy
  Ba  Ba0  1  0.261525  0.498541  0.318302  1
  Ba  Ba1  1  0.738475  0.001459  0.818302  1
  Ba  Ba2  1  0.738475  0.501459  0.681698  1
  Ba  Ba3  1  0.261525  0.998541  0.181698  1
  V  V4  1  0.194876  0.810725  0.611823  1
  V  V5  1  0.805124  0.189275  0.388177  1
  V  V6  1  0.194876  0.310725  0.888177  1
  V  V7  1  0.805124  0.689275  0.111823  1
  Zn  Zn8  1  0.696497  0.810704  0.399460  1
  Zn  Zn9  1  0.303503  0.689296  0.899460  1
  Zn  Zn10  1  0.696497  0.310704  0.100540  1
  Zn  Zn11  1  0.303503  0.189296  0.600540  1
  F  F12  1  0.112356  0.120605  0.442291  1
  F  F13  1  0.364188  0.371590  0.053546  1
  F  F14  1  0.479053  0.753606  0.707987  1
  F  F15  1  0.520947  0.246394  0.292013  1
  F  F16  1  0.889730  0.367685  0.459110  1
  F  F17  1  0.258820  0.497691  0.807788  1
  F  F18  1  0.021293  0.750744  0.779111  1
  F  F19  1  0.110270  0.132315  0.959110  1
  F  F20  1  0.364188  0.871590  0.446454  1
  F  F21  1  0.520947  0.746394  0.207987  1
  F  F22  1  0.112356  0.620605  0.057709  1
  F  F23  1  0.887644  0.879395  0.557709  1
  F  F24  1  0.978707  0.749256  0.279111  1
  F  F25  1  0.388536  0.875924  0.958239  1
  F  F26  1  0.110270  0.632315  0.540890  1
  F  F27  1  0.889730  0.867685  0.040890  1
  F  F28  1  0.978707  0.249256  0.220889  1
  F  F29  1  0.887644  0.379395  0.942291  1
  F  F30  1  0.611464  0.624076  0.458239  1
  F  F31  1  0.635812  0.628410  0.946454  1
  F  F32  1  0.611464  0.124076  0.041761  1
  F  F33  1  0.021293  0.250744  0.720889  1
  F  F34  1  0.388536  0.375924  0.541761  1
  F  F35  1  0.741180  0.002309  0.307788  1
  F  F36  1  0.741180  0.502309  0.192212  1
  F  F37  1  0.258820  0.997691  0.692212  1
  F  F38  1  0.635812  0.128410  0.553546  1
  F  F39  1  0.479053  0.253606  0.792013  1
