# generated using pymatgen
data_YCu3(MoO3)4
_symmetry_space_group_name_H-M   'P 1'
_cell_length_a   6.67687730
_cell_length_b   6.67218359
_cell_length_c   6.67621176
_cell_angle_alpha   109.47713691
_cell_angle_beta   109.41136203
_cell_angle_gamma   109.48576546
_symmetry_Int_Tables_number   1
_chemical_formula_structural   YCu3(MoO3)4
_chemical_formula_sum   'Y1 Cu3 Mo4 O12'
_cell_volume   229.06588453
_cell_formula_units_Z   1
loop_
 _symmetry_equiv_pos_site_id
 _symmetry_equiv_pos_as_xyz
  1  'x, y, z'
loop_
 _atom_site_type_symbol
 _atom_site_label
 _atom_site_symmetry_multiplicity
 _atom_site_fract_x
 _atom_site_fract_y
 _atom_site_fract_z
 _atom_site_occupancy
  Y  Y0  1  0.000004  0.000001  0.999996  1
  Cu  Cu1  1  0.499999  0.000000  0.500001  1
  Cu  Cu2  1  0.500000  0.500000  0.999999  1
  Cu  Cu3  1  0.000000  0.500001  0.500001  1
  Mo  Mo4  1  0.500001  0.000000  0.000001  1
  Mo  Mo5  1  0.999999  -0.000000  0.499999  1
  Mo  Mo6  1  0.000000  0.500000  0.000001  1
  Mo  Mo7  1  0.499999  0.499999  0.499999  1
  O  O8  1  0.834819  0.297933  0.133399  1
  O  O9  1  0.165181  0.702070  0.866603  1
  O  O10  1  0.837693  0.704919  0.530881  1
  O  O11  1  0.294547  0.467843  0.163102  1
  O  O12  1  0.470935  0.163687  0.295588  1
  O  O13  1  0.134165  0.835610  0.297228  1
  O  O14  1  0.703171  0.866957  0.165369  1
  O  O15  1  0.529063  0.836311  0.704411  1
  O  O16  1  0.162307  0.295084  0.469123  1
  O  O17  1  0.705453  0.532154  0.836895  1
  O  O18  1  0.865834  0.164389  0.702773  1
  O  O19  1  0.296828  0.133042  0.834630  1
