# generated using pymatgen
data_Nb2Zn2FeO8
_symmetry_space_group_name_H-M   'P 1'
_cell_length_a   5.30215461
_cell_length_b   5.97651488
_cell_length_c   10.21193883
_cell_angle_alpha   107.10492764
_cell_angle_beta   89.29083613
_cell_angle_gamma   89.95936536
_symmetry_Int_Tables_number   1
_chemical_formula_structural   Nb2Zn2FeO8
_chemical_formula_sum   'Nb4 Zn4 Fe2 O16'
_cell_volume   309.25960177
_cell_formula_units_Z   2
loop_
 _symmetry_equiv_pos_site_id
 _symmetry_equiv_pos_as_xyz
  1  'x, y, z'
loop_
 _atom_site_type_symbol
 _atom_site_label
 _atom_site_symmetry_multiplicity
 _atom_site_fract_x
 _atom_site_fract_y
 _atom_site_fract_z
 _atom_site_occupancy
  Nb  Nb0  1  0.734233  0.276436  0.230886  1
  Nb  Nb1  1  0.762344  0.047234  0.770072  1
  Nb  Nb2  1  0.262873  0.724048  0.768675  1
  Nb  Nb3  1  0.234065  0.954049  0.231744  1
  Zn  Zn4  1  0.765368  0.432835  0.560719  1
  Zn  Zn5  1  0.732189  0.872221  0.441091  1
  Zn  Zn6  1  0.231557  0.565956  0.438399  1
  Zn  Zn7  1  0.266077  0.127880  0.560965  1
  Fe  Fe8  1  0.746685  0.651852  0.000844  1
  Fe  Fe9  1  0.247863  0.351197  0.000561  1
  O  O10  1  0.074051  0.186077  0.141085  1
  O  O11  1  0.423508  0.045167  0.859827  1
  O  O12  1  0.924344  0.817541  0.859063  1
  O  O13  1  0.574427  0.954913  0.140202  1
  O  O14  1  0.591570  0.433317  0.118600  1
  O  O15  1  0.900081  0.320196  0.883531  1
  O  O16  1  0.402254  0.566118  0.882512  1
  O  O17  1  0.092765  0.685886  0.117330  1
  O  O18  1  0.434810  0.282440  0.358554  1
  O  O19  1  0.062007  0.927300  0.641890  1
  O  O20  1  0.364189  0.839773  0.387963  1
  O  O21  1  0.133683  0.453383  0.611760  1
  O  O22  1  0.633591  0.159570  0.612121  1
  O  O23  1  0.863198  0.546497  0.388512  1
  O  O24  1  0.934584  0.072901  0.358342  1
  O  O25  1  0.562608  0.717044  0.641969  1
