# generated using pymatgen
data_Be3Si3(SnO6)2
_symmetry_space_group_name_H-M   'P 1'
_cell_length_a   8.09155391
_cell_length_b   8.29527874
_cell_length_c   14.16835598
_cell_angle_alpha   89.08631148
_cell_angle_beta   90.00000000
_cell_angle_gamma   90.00000000
_symmetry_Int_Tables_number   1
_chemical_formula_structural   Be3Si3(SnO6)2
_chemical_formula_sum   'Be12 Si12 Sn8 O48'
_cell_volume   950.88315178
_cell_formula_units_Z   4
loop_
 _symmetry_equiv_pos_site_id
 _symmetry_equiv_pos_as_xyz
  1  'x, y, z'
loop_
 _atom_site_type_symbol
 _atom_site_label
 _atom_site_symmetry_multiplicity
 _atom_site_fract_x
 _atom_site_fract_y
 _atom_site_fract_z
 _atom_site_occupancy
  Be  Be0  1  0.849800  0.926678  0.759702  1
  Be  Be1  1  0.659840  0.929501  0.406604  1
  Be  Be2  1  0.159841  0.570499  0.093396  1
  Be  Be3  1  0.340159  0.070498  0.593396  1
  Be  Be4  1  0.840159  0.429501  0.906604  1
  Be  Be5  1  0.154505  0.618501  0.409807  1
  Be  Be6  1  0.654505  0.881499  0.090193  1
  Be  Be7  1  0.845495  0.381498  0.590193  1
  Be  Be8  1  0.345494  0.118501  0.909807  1
  Be  Be9  1  0.650200  0.426678  0.259702  1
  Be  Be10  1  0.150200  0.073321  0.240298  1
  Be  Be11  1  0.349801  0.573322  0.740298  1
  Si  Si12  1  0.227998  0.930070  0.759257  1
  Si  Si13  1  0.727998  0.569930  0.740743  1
  Si  Si14  1  0.772002  0.069929  0.240743  1
  Si  Si15  1  0.272003  0.430070  0.259257  1
  Si  Si16  1  0.737585  0.103225  0.919949  1
  Si  Si17  1  0.237585  0.396776  0.580051  1
  Si  Si18  1  0.262415  0.896775  0.080051  1
  Si  Si19  1  0.762414  0.603225  0.419949  1
  Si  Si20  1  0.206398  0.431737  0.897309  1
  Si  Si21  1  0.706399  0.068262  0.602691  1
  Si  Si22  1  0.793602  0.568263  0.102691  1
  Si  Si23  1  0.293601  0.931737  0.397309  1
  Sn  Sn24  1  0.492266  0.243692  0.094171  1
  Sn  Sn25  1  0.007734  0.743693  0.594171  1
  Sn  Sn26  1  0.507735  0.756308  0.905829  1
  Sn  Sn27  1  0.992266  0.256307  0.405829  1
  Sn  Sn28  1  0.553697  0.252132  0.421530  1
  Sn  Sn29  1  0.053698  0.247866  0.078470  1
  Sn  Sn30  1  0.446303  0.747868  0.578470  1
  Sn  Sn31  1  0.946302  0.752134  0.921530  1
  O  O32  1  0.138292  0.749686  0.032787  1
  O  O33  1  0.043158  0.894231  0.809529  1
  O  O34  1  0.543158  0.605769  0.690471  1
  O  O35  1  0.956842  0.105769  0.190471  1
  O  O36  1  0.456841  0.394230  0.309529  1
  O  O37  1  0.544456  0.151372  0.947904  1
  O  O38  1  0.044456  0.348628  0.552097  1
  O  O39  1  0.455544  0.848628  0.052096  1
  O  O40  1  0.955543  0.651372  0.447903  1
  O  O41  1  0.022197  0.516791  0.877543  1
  O  O42  1  0.522197  0.983209  0.622457  1
  O  O43  1  0.977803  0.483210  0.122457  1
  O  O44  1  0.161577  0.062866  0.354080  1
  O  O45  1  0.661576  0.437135  0.145920  1
  O  O46  1  0.838424  0.937134  0.645920  1
  O  O47  1  0.338424  0.562866  0.854080  1
  O  O48  1  0.638293  0.750314  0.467213  1
  O  O49  1  0.477804  0.016791  0.377543  1
  O  O50  1  0.361708  0.249686  0.532787  1
  O  O51  1  0.861708  0.250313  0.967213  1
  O  O52  1  0.713110  0.074459  0.483429  1
  O  O53  1  0.652296  0.046100  0.147896  1
  O  O54  1  0.847704  0.546099  0.647896  1
  O  O55  1  0.347703  0.953900  0.852104  1
  O  O56  1  0.720561  0.433005  0.820965  1
  O  O57  1  0.220561  0.066994  0.679035  1
  O  O58  1  0.279439  0.566995  0.179035  1
  O  O59  1  0.779438  0.933005  0.320965  1
  O  O60  1  0.760645  0.063340  0.811832  1
  O  O61  1  0.260645  0.436661  0.688168  1
  O  O62  1  0.239354  0.936660  0.188168  1
  O  O63  1  0.739355  0.563340  0.311832  1
  O  O64  1  0.234142  0.250982  0.867563  1
  O  O65  1  0.734141  0.249018  0.632438  1
  O  O66  1  0.765859  0.749017  0.132437  1
  O  O67  1  0.265859  0.750983  0.367562  1
  O  O68  1  0.790347  0.739792  0.794126  1
  O  O69  1  0.290346  0.760208  0.705874  1
  O  O70  1  0.209653  0.260207  0.205874  1
  O  O71  1  0.709654  0.239793  0.294126  1
  O  O72  1  0.788207  0.930909  0.980530  1
  O  O73  1  0.288206  0.569091  0.519470  1
  O  O74  1  0.211793  0.069091  0.019470  1
  O  O75  1  0.711794  0.430908  0.480530  1
  O  O76  1  0.786891  0.574458  0.983429  1
  O  O77  1  0.286891  0.925541  0.516571  1
  O  O78  1  0.213109  0.425542  0.016571  1
  O  O79  1  0.152296  0.453900  0.352104  1
