# generated using pymatgen
data_Zn(CrS2)2
_symmetry_space_group_name_H-M   'P 1'
_cell_length_a   7.09056029
_cell_length_b   7.09056145
_cell_length_c   7.10578626
_cell_angle_alpha   119.92914448
_cell_angle_beta   119.92914796
_cell_angle_gamma   89.99999348
_symmetry_Int_Tables_number   1
_chemical_formula_structural   Zn(CrS2)2
_chemical_formula_sum   'Zn2 Cr4 S8'
_cell_volume   253.15465397
_cell_formula_units_Z   2
loop_
 _symmetry_equiv_pos_site_id
 _symmetry_equiv_pos_as_xyz
  1  'x, y, z'
loop_
 _atom_site_type_symbol
 _atom_site_label
 _atom_site_symmetry_multiplicity
 _atom_site_fract_x
 _atom_site_fract_y
 _atom_site_fract_z
 _atom_site_occupancy
  Zn  Zn0  1  0.375000  0.625000  0.750000  1
  Zn  Zn1  1  0.625000  0.375000  0.250000  1
  Cr  Cr2  1  0.000000  0.000000  0.500000  1
  Cr  Cr3  1  0.000000  0.500000  0.000000  1
  Cr  Cr4  1  0.500000  0.000000  0.500000  1
  Cr  Cr5  1  0.000000  0.000000  0.000000  1
  S  S6  1  0.761340  0.781520  0.522680  1
  S  S7  1  0.758842  0.238660  0.977320  1
  S  S8  1  0.218480  0.238660  0.977320  1
  S  S9  1  0.238660  0.218480  0.477320  1
  S  S10  1  0.238660  0.758842  0.477320  1
  S  S11  1  0.241158  0.761340  0.022680  1
  S  S12  1  0.761340  0.241158  0.522680  1
  S  S13  1  0.781520  0.761340  0.022680  1
