# generated using pymatgen
data_Ti2ZnO4
_symmetry_space_group_name_H-M   'P 1'
_cell_length_a   5.97290716
_cell_length_b   5.99940684
_cell_length_c   6.00435295
_cell_angle_alpha   88.64663744
_cell_angle_beta   119.97659722
_cell_angle_gamma   119.94798625
_symmetry_Int_Tables_number   1
_chemical_formula_structural   Ti2ZnO4
_chemical_formula_sum   'Ti4 Zn2 O8'
_cell_volume   154.01022361
_cell_formula_units_Z   2
loop_
 _symmetry_equiv_pos_site_id
 _symmetry_equiv_pos_as_xyz
  1  'x, y, z'
loop_
 _atom_site_type_symbol
 _atom_site_label
 _atom_site_symmetry_multiplicity
 _atom_site_fract_x
 _atom_site_fract_y
 _atom_site_fract_z
 _atom_site_occupancy
  Ti  Ti0  1  0.499995  0.000001  0.499997  1
  Ti  Ti1  1  0.500014  0.500002  0.500011  1
  Ti  Ti2  1  0.000021  0.499990  0.000005  1
  Ti  Ti3  1  0.999995  0.500000  0.500000  1
  Zn  Zn4  1  0.999985  0.999984  0.000004  1
  Zn  Zn5  1  0.500007  0.000008  0.000005  1
  O  O6  1  0.027990  0.745248  0.252839  1
  O  O7  1  0.496719  0.752964  0.738884  1
  O  O8  1  0.472025  0.746572  0.255157  1
  O  O9  1  0.996047  0.737490  0.751726  1
  O  O10  1  0.527996  0.253430  0.744855  1
  O  O11  1  0.503271  0.247039  0.261111  1
  O  O12  1  0.003981  0.262509  0.248298  1
  O  O13  1  0.972004  0.254728  0.747150  1
