# generated using pymatgen
data_VCuO4
_symmetry_space_group_name_H-M   'P 1'
_cell_length_a   6.41421561
_cell_length_b   8.41883921
_cell_length_c   11.83806174
_cell_angle_alpha   90.00000000
_cell_angle_beta   90.64757516
_cell_angle_gamma   90.00000000
_symmetry_Int_Tables_number   1
_chemical_formula_structural   VCuO4
_chemical_formula_sum   'V8 Cu8 O32'
_cell_volume   639.21746202
_cell_formula_units_Z   8
loop_
 _symmetry_equiv_pos_site_id
 _symmetry_equiv_pos_as_xyz
  1  'x, y, z'
loop_
 _atom_site_type_symbol
 _atom_site_label
 _atom_site_symmetry_multiplicity
 _atom_site_fract_x
 _atom_site_fract_y
 _atom_site_fract_z
 _atom_site_occupancy
  V  V0  1  0.102633  0.457436  0.845572  1
  V  V1  1  0.102633  0.042564  0.345572  1
  V  V2  1  0.603867  0.090548  0.133738  1
  V  V3  1  0.897367  0.957436  0.654428  1
  V  V4  1  0.396133  0.909452  0.866262  1
  V  V5  1  0.396133  0.590548  0.366262  1
  V  V6  1  0.603867  0.409452  0.633738  1
  V  V7  1  0.897367  0.542564  0.154428  1
  Cu  Cu8  1  0.773534  0.174734  0.873650  1
  Cu  Cu9  1  0.373300  0.057656  0.628834  1
  Cu  Cu10  1  0.626700  0.942344  0.371166  1
  Cu  Cu11  1  0.226466  0.825266  0.126350  1
  Cu  Cu12  1  0.773534  0.325266  0.373650  1
  Cu  Cu13  1  0.373300  0.442344  0.128834  1
  Cu  Cu14  1  0.226466  0.674734  0.626350  1
  Cu  Cu15  1  0.626700  0.557656  0.871166  1
  O  O16  1  0.034528  0.237347  0.387794  1
  O  O17  1  0.653521  0.010440  0.595074  1
  O  O18  1  0.207152  0.594161  0.465704  1
  O  O19  1  0.792848  0.094161  0.034296  1
  O  O20  1  0.034528  0.262653  0.887794  1
  O  O21  1  0.965472  0.762653  0.612206  1
  O  O22  1  0.089373  0.095619  0.612077  1
  O  O23  1  0.498797  0.897403  0.136831  1
  O  O24  1  0.498797  0.602597  0.636831  1
  O  O25  1  0.311524  0.872158  0.714327  1
  O  O26  1  0.688476  0.372158  0.785673  1
  O  O27  1  0.501203  0.102597  0.863169  1
  O  O28  1  0.910627  0.904381  0.387923  1
  O  O29  1  0.872333  0.526317  0.297606  1
  O  O30  1  0.423922  0.270525  0.594422  1
  O  O31  1  0.423922  0.229475  0.094422  1
  O  O32  1  0.127667  0.026317  0.202394  1
  O  O33  1  0.501203  0.397403  0.363169  1
  O  O34  1  0.127667  0.473683  0.702394  1
  O  O35  1  0.792848  0.405839  0.534296  1
  O  O36  1  0.653521  0.489560  0.095074  1
  O  O37  1  0.688476  0.127842  0.285673  1
  O  O38  1  0.965472  0.737347  0.112206  1
  O  O39  1  0.089373  0.404381  0.112077  1
  O  O40  1  0.207152  0.905839  0.965704  1
  O  O41  1  0.576078  0.770525  0.905578  1
  O  O42  1  0.346479  0.989560  0.404926  1
  O  O43  1  0.346479  0.510440  0.904926  1
  O  O44  1  0.910627  0.595619  0.887923  1
  O  O45  1  0.576078  0.729475  0.405578  1
  O  O46  1  0.311524  0.627842  0.214327  1
  O  O47  1  0.872333  0.973683  0.797606  1
