# generated using pymatgen
data_Zn(CrS2)2
_symmetry_space_group_name_H-M   'P 1'
_cell_length_a   7.22182876
_cell_length_b   7.03139764
_cell_length_c   7.01813118
_cell_angle_alpha   87.56739672
_cell_angle_beta   120.97297145
_cell_angle_gamma   121.05059216
_symmetry_Int_Tables_number   1
_chemical_formula_structural   Zn(CrS2)2
_chemical_formula_sum   'Zn2 Cr4 S8'
_cell_volume   249.42346568
_cell_formula_units_Z   2
loop_
 _symmetry_equiv_pos_site_id
 _symmetry_equiv_pos_as_xyz
  1  'x, y, z'
loop_
 _atom_site_type_symbol
 _atom_site_label
 _atom_site_symmetry_multiplicity
 _atom_site_fract_x
 _atom_site_fract_y
 _atom_site_fract_z
 _atom_site_occupancy
  Zn  Zn0  1  0.000011  -0.000010  0.999890  1
  Zn  Zn1  1  0.500087  -0.000062  0.000106  1
  Cr  Cr2  1  0.500093  -0.000002  0.500051  1
  Cr  Cr3  1  0.500210  0.500253  0.500175  1
  Cr  Cr4  1  0.000082  0.500072  -0.000184  1
  Cr  Cr5  1  0.999938  0.499975  0.499937  1
  S  S6  1  0.023902  0.749509  0.249717  1
  S  S7  1  0.484337  0.739908  0.728032  1
  S  S8  1  0.475836  0.750084  0.250658  1
  S  S9  1  0.984429  0.728139  0.740067  1
  S  S10  1  0.523958  0.249898  0.749403  1
  S  S11  1  0.515618  0.260109  0.271912  1
  S  S12  1  0.015524  0.271668  0.260049  1
  S  S13  1  0.976023  0.250423  0.750229  1
