# generated using pymatgen
data_NiMoP2O9
_symmetry_space_group_name_H-M   'P 1'
_cell_length_a   6.43940605
_cell_length_b   8.03409713
_cell_length_c   14.00968065
_cell_angle_alpha   90.08237373
_cell_angle_beta   90.07292709
_cell_angle_gamma   89.81132973
_symmetry_Int_Tables_number   1
_chemical_formula_structural   NiMoP2O9
_chemical_formula_sum   'Ni4 Mo4 P8 O36'
_cell_volume   724.78295712
_cell_formula_units_Z   4
loop_
 _symmetry_equiv_pos_site_id
 _symmetry_equiv_pos_as_xyz
  1  'x, y, z'
loop_
 _atom_site_type_symbol
 _atom_site_label
 _atom_site_symmetry_multiplicity
 _atom_site_fract_x
 _atom_site_fract_y
 _atom_site_fract_z
 _atom_site_occupancy
  Ni  Ni0  1  0.499989  0.999987  0.999990  1
  Ni  Ni1  1  0.500013  0.500007  0.499984  1
  Ni  Ni2  1  0.000034  0.500024  0.499991  1
  Ni  Ni3  1  0.999990  0.000011  0.000009  1
  Mo  Mo4  1  0.750995  0.354795  0.874761  1
  Mo  Mo5  1  0.249008  0.645194  0.125227  1
  Mo  Mo6  1  0.250810  0.855207  0.625184  1
  Mo  Mo7  1  0.749186  0.144785  0.374832  1
  P  P8  1  0.250751  0.340599  0.943190  1
  P  P9  1  0.749256  0.659389  0.056798  1
  P  P10  1  0.750577  0.841255  0.556881  1
  P  P11  1  0.249418  0.158745  0.443141  1
  P  P12  1  0.750588  0.394622  0.682382  1
  P  P13  1  0.249417  0.605396  0.317596  1
  P  P14  1  0.250512  0.894444  0.817618  1
  P  P15  1  0.749459  0.105554  0.182388  1
  O  O16  1  0.049465  0.601901  0.373877  1
  O  O17  1  0.550343  0.398975  0.626227  1
  O  O18  1  0.949652  0.102254  0.126399  1
  O  O19  1  0.450630  0.898721  0.873936  1
  O  O20  1  0.950538  0.398126  0.626108  1
  O  O21  1  0.449661  0.601052  0.373758  1
  O  O22  1  0.050357  0.897756  0.873621  1
  O  O23  1  0.549380  0.101252  0.126057  1
  O  O24  1  0.249702  0.336266  0.481508  1
  O  O25  1  0.750306  0.663746  0.518488  1
  O  O26  1  0.749774  0.836627  0.018513  1
  O  O27  1  0.250225  0.163373  0.981491  1
  O  O28  1  0.754798  0.163798  0.940294  1
  O  O29  1  0.245214  0.836202  0.059704  1
  O  O30  1  0.250832  0.663801  0.559633  1
  O  O31  1  0.749156  0.336206  0.440365  1
  O  O32  1  0.751137  0.233761  0.753602  1
  O  O33  1  0.248866  0.766245  0.246386  1
  O  O34  1  0.252527  0.733805  0.746050  1
  O  O35  1  0.747450  0.266187  0.253967  1
  O  O36  1  0.442702  0.127545  0.379781  1
  O  O37  1  0.943881  0.871931  0.620324  1
  O  O38  1  0.555737  0.629944  0.120096  1
  O  O39  1  0.057745  0.372668  0.879641  1
  O  O40  1  0.557293  0.872424  0.620244  1
  O  O41  1  0.056112  0.128048  0.379702  1
  O  O42  1  0.444264  0.370029  0.879888  1
  O  O43  1  0.942259  0.627312  0.120342  1
  O  O44  1  0.750494  0.975361  0.268758  1
  O  O45  1  0.249503  0.024638  0.731259  1
  O  O46  1  0.249469  0.475461  0.230934  1
  O  O47  1  0.750531  0.524545  0.769061  1
  O  O48  1  0.750261  0.973887  0.476928  1
  O  O49  1  0.249732  0.026136  0.523109  1
  O  O50  1  0.251219  0.473533  0.023250  1
  O  O51  1  0.748781  0.526475  0.976726  1
