# generated using pymatgen
data_Ba4CaCr4Cu2F28
_symmetry_space_group_name_H-M   'P 1'
_cell_length_a   5.40375149
_cell_length_b   7.57836631
_cell_length_c   15.03294062
_cell_angle_alpha   91.27508893
_cell_angle_beta   90.02561084
_cell_angle_gamma   110.89289473
_symmetry_Int_Tables_number   1
_chemical_formula_structural   Ba4CaCr4Cu2F28
_chemical_formula_sum   'Ba4 Ca1 Cr4 Cu2 F28'
_cell_volume   574.97950315
_cell_formula_units_Z   1
loop_
 _symmetry_equiv_pos_site_id
 _symmetry_equiv_pos_as_xyz
  1  'x, y, z'
loop_
 _atom_site_type_symbol
 _atom_site_label
 _atom_site_symmetry_multiplicity
 _atom_site_fract_x
 _atom_site_fract_y
 _atom_site_fract_z
 _atom_site_occupancy
  Ba  Ba0  1  0.117387  0.374382  0.622064  1
  Ba  Ba1  1  0.256783  0.361560  0.126255  1
  Ba  Ba2  1  0.894246  0.636299  0.373403  1
  Ba  Ba3  1  0.742868  0.627123  0.878093  1
  Ca  Ca4  1  0.423636  0.001609  0.749208  1
  Cr  Cr5  1  0.140625  0.239458  0.372274  1
  Cr  Cr6  1  0.101303  0.243631  0.874194  1
  Cr  Cr7  1  0.853612  0.755724  0.625029  1
  Cr  Cr8  1  0.898977  0.759478  0.127566  1
  Cu  Cu9  1  0.500521  0.002796  0.001026  1
  Cu  Cu10  1  0.500782  0.999282  0.497644  1
  F  F11  1  0.843455  0.505147  0.095542  1
  F  F12  1  0.158757  0.506022  0.898870  1
  F  F13  1  0.085057  0.012743  0.653456  1
  F  F14  1  0.071199  0.986211  0.845284  1
  F  F15  1  0.295714  0.170426  0.477898  1
  F  F16  1  0.585245  0.765262  0.709337  1
  F  F17  1  0.825759  0.235328  0.789206  1
  F  F18  1  0.646156  0.494557  0.599760  1
  F  F19  1  0.936125  0.001171  0.150771  1
  F  F20  1  0.887423  0.275973  0.452204  1
  F  F21  1  0.403545  0.280617  0.952756  1
  F  F22  1  0.618645  0.109970  0.612391  1
  F  F23  1  0.927658  0.996321  0.350635  1
  F  F24  1  0.151981  0.750029  0.204936  1
  F  F25  1  0.644467  0.665005  0.218969  1
  F  F26  1  0.340834  0.491514  0.403933  1
  F  F27  1  0.878416  0.174397  0.979742  1
  F  F28  1  0.610403  0.723740  0.047199  1
  F  F29  1  0.983528  0.334078  0.280459  1
  F  F30  1  0.030337  0.677844  0.722893  1
  F  F31  1  0.507424  0.892939  0.886216  1
  F  F32  1  0.497738  0.117405  0.109947  1
  F  F33  1  0.117870  0.715494  0.547293  1
  F  F34  1  0.703406  0.826931  0.519107  1
  F  F35  1  0.123801  0.828035  0.022175  1
  F  F36  1  0.359248  0.319614  0.776932  1
  F  F37  1  0.400648  0.242603  0.295547  1
  F  F38  1  0.374574  0.881846  0.389774  1
