# generated using pymatgen
data_CaMo2O5
_symmetry_space_group_name_H-M   'P 1'
_cell_length_a   4.25138325
_cell_length_b   5.87936444
_cell_length_c   11.59816877
_cell_angle_alpha   90.00000000
_cell_angle_beta   90.00000000
_cell_angle_gamma   111.19549478
_symmetry_Int_Tables_number   1
_chemical_formula_structural   CaMo2O5
_chemical_formula_sum   'Ca2 Mo4 O10'
_cell_volume   270.29006224
_cell_formula_units_Z   2
loop_
 _symmetry_equiv_pos_site_id
 _symmetry_equiv_pos_as_xyz
  1  'x, y, z'
loop_
 _atom_site_type_symbol
 _atom_site_label
 _atom_site_symmetry_multiplicity
 _atom_site_fract_x
 _atom_site_fract_y
 _atom_site_fract_z
 _atom_site_occupancy
  Ca  Ca0  1  0.896633  0.793264  0.750000  1
  Ca  Ca1  1  0.103368  0.206737  0.250000  1
  Mo  Mo2  1  0.205894  0.411789  0.594702  1
  Mo  Mo3  1  0.794107  0.588212  0.405297  1
  Mo  Mo4  1  0.794107  0.588212  0.094703  1
  Mo  Mo5  1  0.205894  0.411789  0.905298  1
  O  O6  1  0.701237  0.402472  0.250000  1
  O  O7  1  0.298764  0.597529  0.750000  1
  O  O8  1  0.255070  0.510139  0.075033  1
  O  O9  1  0.744932  0.489862  0.924967  1
  O  O10  1  0.744932  0.489862  0.575033  1
  O  O11  1  0.255070  0.510139  0.424966  1
  O  O12  1  0.042267  0.084532  0.619023  1
  O  O13  1  0.957733  0.915467  0.380977  1
  O  O14  1  0.042267  0.084532  0.880977  1
  O  O15  1  0.957733  0.915467  0.119024  1
