# generated using pymatgen
data_Mn3AlF15
_symmetry_space_group_name_H-M   'P 1'
_cell_length_a   9.24370839
_cell_length_b   5.70097688
_cell_length_c   10.60700159
_cell_angle_alpha   90.00000000
_cell_angle_beta   90.00000000
_cell_angle_gamma   106.15399675
_symmetry_Int_Tables_number   1
_chemical_formula_structural   Mn3AlF15
_chemical_formula_sum   'Mn6 Al2 F30'
_cell_volume   536.89996747
_cell_formula_units_Z   2
loop_
 _symmetry_equiv_pos_site_id
 _symmetry_equiv_pos_as_xyz
  1  'x, y, z'
loop_
 _atom_site_type_symbol
 _atom_site_label
 _atom_site_symmetry_multiplicity
 _atom_site_fract_x
 _atom_site_fract_y
 _atom_site_fract_z
 _atom_site_occupancy
  Mn  Mn0  1  0.166667  0.000000  0.500000  1
  Mn  Mn1  1  0.498747  0.003463  0.501407  1
  Mn  Mn2  1  0.834586  0.996537  0.498593  1
  Mn  Mn3  1  0.166667  0.000000  0.000000  1
  Mn  Mn4  1  0.498747  0.003463  0.998593  1
  Mn  Mn5  1  0.834586  0.996537  0.001407  1
  Al  Al6  1  0.913233  0.468650  0.250000  1
  Al  Al7  1  0.420100  0.531350  0.750000  1
  F  F8  1  0.094878  0.612394  0.250000  1
  F  F9  1  0.448037  0.643500  0.250000  1
  F  F10  1  0.778852  0.613280  0.250000  1
  F  F11  1  0.238455  0.387606  0.750000  1
  F  F12  1  0.554482  0.386720  0.750000  1
  F  F13  1  0.885296  0.356500  0.750000  1
  F  F14  1  0.025521  0.124786  0.591018  1
  F  F15  1  0.347457  0.120102  0.597275  1
  F  F16  1  0.691025  0.122214  0.592676  1
  F  F17  1  0.307813  0.875214  0.408982  1
  F  F18  1  0.642308  0.877786  0.407324  1
  F  F19  1  0.985876  0.879898  0.402725  1
  F  F20  1  0.119597  0.727806  0.908467  1
  F  F21  1  0.454216  0.723742  0.883535  1
  F  F22  1  0.788645  0.730102  0.910273  1
  F  F23  1  0.213737  0.272194  0.091533  1
  F  F24  1  0.544688  0.269898  0.089727  1
  F  F25  1  0.879117  0.276258  0.116465  1
  F  F26  1  0.213737  0.272194  0.408467  1
  F  F27  1  0.544688  0.269898  0.410273  1
  F  F28  1  0.879117  0.276258  0.383535  1
  F  F29  1  0.119597  0.727806  0.591533  1
  F  F30  1  0.454216  0.723742  0.616465  1
  F  F31  1  0.788645  0.730102  0.589727  1
  F  F32  1  0.025521  0.124786  0.908982  1
  F  F33  1  0.347457  0.120102  0.902725  1
  F  F34  1  0.691025  0.122214  0.907324  1
  F  F35  1  0.307813  0.875214  0.091018  1
  F  F36  1  0.642308  0.877786  0.092676  1
  F  F37  1  0.985876  0.879898  0.097275  1
