# generated using pymatgen
data_CaEu2(CuO3)2
_symmetry_space_group_name_H-M   'P 1'
_cell_length_a   6.29106974
_cell_length_b   6.22269313
_cell_length_c   8.28088447
_cell_angle_alpha   112.06921694
_cell_angle_beta   104.67487022
_cell_angle_gamma   90.00000278
_symmetry_Int_Tables_number   1
_chemical_formula_structural   CaEu2(CuO3)2
_chemical_formula_sum   'Ca2 Eu4 Cu4 O12'
_cell_volume   288.98015365
_cell_formula_units_Z   2
loop_
 _symmetry_equiv_pos_site_id
 _symmetry_equiv_pos_as_xyz
  1  'x, y, z'
loop_
 _atom_site_type_symbol
 _atom_site_label
 _atom_site_symmetry_multiplicity
 _atom_site_fract_x
 _atom_site_fract_y
 _atom_site_fract_z
 _atom_site_occupancy
  Eu  Eu0  1  0.779476  0.990683  0.604856  1
  Eu  Eu1  1  0.220524  0.009317  0.395144  1
  Eu  Eu2  1  0.720524  0.385827  0.395144  1
  Eu  Eu3  1  0.279476  0.614173  0.604856  1
  Ca  Ca4  1  0.750000  0.950585  0.000000  1
  Ca  Ca5  1  0.250000  0.049415  1.000000  1
  Cu  Cu6  1  0.998850  0.489318  0.166212  1
  Cu  Cu7  1  0.001150  0.510682  0.833788  1
  Cu  Cu8  1  0.498850  0.676894  0.166212  1
  Cu  Cu9  1  0.501150  0.323106  0.833788  1
  O  O10  1  0.482779  0.693355  0.401961  1
  O  O11  1  0.025126  0.727736  0.078351  1
  O  O12  1  0.517221  0.306645  0.598039  1
  O  O13  1  0.473158  0.993227  0.760120  1
  O  O14  1  0.526841  0.006773  0.239880  1
  O  O15  1  0.026842  0.233107  0.239880  1
  O  O16  1  0.974874  0.272264  0.921649  1
  O  O17  1  0.474874  0.649385  0.921649  1
  O  O18  1  0.973159  0.766893  0.760120  1
  O  O19  1  0.525126  0.350615  0.078351  1
  O  O20  1  0.017221  0.291395  0.598039  1
  O  O21  1  0.982779  0.708605  0.401961  1
