# generated using pymatgen
data_Y(CuS2)3
_symmetry_space_group_name_H-M   'P 1'
_cell_length_a   8.52373450
_cell_length_b   6.73718470
_cell_length_c   14.34273428
_cell_angle_alpha   90.00000000
_cell_angle_beta   90.00000000
_cell_angle_gamma   90.00000000
_symmetry_Int_Tables_number   1
_chemical_formula_structural   Y(CuS2)3
_chemical_formula_sum   'Y4 Cu12 S24'
_cell_volume   823.64548098
_cell_formula_units_Z   4
loop_
 _symmetry_equiv_pos_site_id
 _symmetry_equiv_pos_as_xyz
  1  'x, y, z'
loop_
 _atom_site_type_symbol
 _atom_site_label
 _atom_site_symmetry_multiplicity
 _atom_site_fract_x
 _atom_site_fract_y
 _atom_site_fract_z
 _atom_site_occupancy
  Y  Y0  1  0.036274  0.745243  0.679904  1
  Y  Y1  1  0.536274  0.754757  0.320096  1
  Y  Y2  1  0.630393  0.245243  0.820096  1
  Y  Y3  1  0.130393  0.254757  0.179904  1
  Cu  Cu4  1  0.296938  0.618070  0.068037  1
  Cu  Cu5  1  0.597784  0.742769  0.090673  1
  Cu  Cu6  1  0.897445  0.635539  0.058619  1
  Cu  Cu7  1  0.068883  0.242769  0.409327  1
  Cu  Cu8  1  0.369728  0.118070  0.431963  1
  Cu  Cu9  1  0.769222  0.135539  0.441381  1
  Cu  Cu10  1  0.097784  0.757231  0.909327  1
  Cu  Cu11  1  0.397445  0.864461  0.941381  1
  Cu  Cu12  1  0.796938  0.881930  0.931963  1
  Cu  Cu13  1  0.269222  0.364461  0.558619  1
  Cu  Cu14  1  0.568883  0.257231  0.590673  1
  Cu  Cu15  1  0.869728  0.381930  0.568037  1
  S  S16  1  0.278255  0.466728  0.709200  1
  S  S17  1  0.523861  0.509503  0.688974  1
  S  S18  1  0.870934  0.430666  0.722710  1
  S  S19  1  0.023861  0.990497  0.311026  1
  S  S20  1  0.370934  0.069334  0.277290  1
  S  S21  1  0.778255  0.033272  0.290800  1
  S  S22  1  0.142806  0.009503  0.811026  1
  S  S23  1  0.388412  0.966728  0.790800  1
  S  S24  1  0.795732  0.930666  0.777290  1
  S  S25  1  0.295732  0.569334  0.222710  1
  S  S26  1  0.642806  0.490497  0.188974  1
  S  S27  1  0.888412  0.533272  0.209200  1
  S  S28  1  0.198597  0.024787  0.553540  1
  S  S29  1  0.570592  -0.035338  0.515845  1
  S  S30  1  0.948841  0.036205  0.556342  1
  S  S31  1  0.217826  0.963795  0.056342  1
  S  S32  1  0.596074  0.035338  0.015845  1
  S  S33  1  0.968070  0.975213  0.053540  1
  S  S34  1  0.096074  0.464662  0.984155  1
  S  S35  1  0.468070  0.524787  0.946460  1
  S  S36  1  0.717826  0.536205  0.943658  1
  S  S37  1  0.070592  0.535338  0.484156  1
  S  S38  1  0.448841  0.463795  0.443658  1
  S  S39  1  0.698597  0.475213  0.446460  1
