# generated using pymatgen
data_La2ZnNiO6
_symmetry_space_group_name_H-M   'P 1'
_cell_length_a   5.42640507
_cell_length_b   5.42640474
_cell_length_c   5.42640527
_cell_angle_alpha   61.39773606
_cell_angle_beta   61.39773712
_cell_angle_gamma   61.39773976
_symmetry_Int_Tables_number   1
_chemical_formula_structural   La2ZnNiO6
_chemical_formula_sum   'La2 Zn1 Ni1 O6'
_cell_volume   116.53273062
_cell_formula_units_Z   1
loop_
 _symmetry_equiv_pos_site_id
 _symmetry_equiv_pos_as_xyz
  1  'x, y, z'
loop_
 _atom_site_type_symbol
 _atom_site_label
 _atom_site_symmetry_multiplicity
 _atom_site_fract_x
 _atom_site_fract_y
 _atom_site_fract_z
 _atom_site_occupancy
  La  La0  1  0.751110  0.751110  0.751110  1
  La  La1  1  0.248890  0.248890  0.248890  1
  Zn  Zn2  1  0.500000  0.500000  0.500000  1
  Ni  Ni3  1  0.000000  0.000000  0.000000  1
  O  O4  1  0.305696  0.764820  0.172962  1
  O  O5  1  0.764820  0.172962  0.305696  1
  O  O6  1  0.172962  0.305696  0.764820  1
  O  O7  1  0.694304  0.235180  0.827038  1
  O  O8  1  0.827038  0.694304  0.235180  1
  O  O9  1  0.235180  0.827038  0.694304  1
