# generated using pymatgen
data_Ba2MgCuBi2F14
_symmetry_space_group_name_H-M   'P 1'
_cell_length_a   5.35738646
_cell_length_b   7.77274927
_cell_length_c   16.14578054
_cell_angle_alpha   89.96999506
_cell_angle_beta   90.02063497
_cell_angle_gamma   110.11485714
_symmetry_Int_Tables_number   1
_chemical_formula_structural   Ba2MgCuBi2F14
_chemical_formula_sum   'Ba4 Mg2 Cu2 Bi4 F28'
_cell_volume   631.32729551
_cell_formula_units_Z   2
loop_
 _symmetry_equiv_pos_site_id
 _symmetry_equiv_pos_as_xyz
  1  'x, y, z'
loop_
 _atom_site_type_symbol
 _atom_site_label
 _atom_site_symmetry_multiplicity
 _atom_site_fract_x
 _atom_site_fract_y
 _atom_site_fract_z
 _atom_site_occupancy
  Ba  Ba0  1  0.078864  0.362090  0.627437  1
  Ba  Ba1  1  0.281336  0.362257  0.126829  1
  Ba  Ba2  1  0.921312  0.640256  0.372372  1
  Ba  Ba3  1  0.716154  0.638428  0.872205  1
  Mg  Mg4  1  0.437535  0.000521  0.749888  1
  Mg  Mg5  1  0.560399  0.000445  0.250432  1
  Cu  Cu6  1  0.497380  0.998219  0.999973  1
  Cu  Cu7  1  0.501529  0.002315  0.499204  1
  Bi  Bi8  1  0.054682  0.216886  0.877514  1
  Bi  Bi9  1  0.942527  0.783779  0.122639  1
  Bi  Bi10  1  0.162479  0.219621  0.376568  1
  Bi  Bi11  1  0.838945  0.783315  0.622055  1
  F  F12  1  0.819474  0.966073  0.328302  1
  F  F13  1  0.868526  0.297071  0.455206  1
  F  F14  1  0.131082  0.704616  0.543338  1
  F  F15  1  0.596900  0.491244  0.601945  1
  F  F16  1  0.652590  0.048578  0.608689  1
  F  F17  1  0.602924  0.952517  0.890259  1
  F  F18  1  0.425960  0.296189  0.956061  1
  F  F19  1  0.852947  0.036649  0.171914  1
  F  F20  1  0.352445  0.356864  0.780478  1
  F  F21  1  0.404335  0.511138  0.398869  1
  F  F22  1  0.769888  0.206364  0.762532  1
  F  F23  1  0.104193  0.508718  0.898650  1
  F  F24  1  0.436389  0.207851  0.262160  1
  F  F25  1  0.229081  0.794351  0.236775  1
  F  F26  1  0.393514  0.047251  0.109354  1
  F  F27  1  0.646655  0.643746  0.219669  1
  F  F28  1  0.126742  0.850443  0.985055  1
  F  F29  1  0.182570  0.036230  0.671075  1
  F  F30  1  0.868757  0.147128  0.014684  1
  F  F31  1  0.721710  0.851816  0.485056  1
  F  F32  1  0.569739  0.704392  0.044176  1
  F  F33  1  0.565602  0.795256  0.736785  1
  F  F34  1  0.006037  0.360281  0.279861  1
  F  F35  1  0.279425  0.150591  0.513764  1
  F  F36  1  0.350173  0.954611  0.389200  1
  F  F37  1  0.145022  0.965053  0.827801  1
  F  F38  1  0.998697  0.644951  0.719359  1
  F  F39  1  0.893790  0.492411  0.100677  1
