# generated using pymatgen
data_CaBe3Co2(SiO4)3
_symmetry_space_group_name_H-M   'P 1'
_cell_length_a   7.54611258
_cell_length_b   8.10961170
_cell_length_c   14.01959974
_cell_angle_alpha   90.00920994
_cell_angle_beta   89.95819796
_cell_angle_gamma   90.01360809
_symmetry_Int_Tables_number   1
_chemical_formula_structural   CaBe3Co2(SiO4)3
_chemical_formula_sum   'Ca4 Be12 Co8 Si12 O48'
_cell_volume   857.94376343
_cell_formula_units_Z   4
loop_
 _symmetry_equiv_pos_site_id
 _symmetry_equiv_pos_as_xyz
  1  'x, y, z'
loop_
 _atom_site_type_symbol
 _atom_site_label
 _atom_site_symmetry_multiplicity
 _atom_site_fract_x
 _atom_site_fract_y
 _atom_site_fract_z
 _atom_site_occupancy
  Ca  Ca0  1  0.497520  0.751303  0.252065  1
  Ca  Ca1  1  0.997016  0.746488  0.248351  1
  Ca  Ca2  1  0.503245  0.247202  0.748389  1
  Ca  Ca3  1  0.002556  0.252099  0.752419  1
  Be  Be4  1  0.841592  0.918768  0.766610  1
  Be  Be5  1  0.662214  0.938253  0.408550  1
  Be  Be6  1  0.160369  0.561430  0.091690  1
  Be  Be7  1  0.339853  0.061676  0.591772  1
  Be  Be8  1  0.838125  0.438358  0.908562  1
  Be  Be9  1  0.158505  0.605892  0.422226  1
  Be  Be10  1  0.658858  0.893249  0.077604  1
  Be  Be11  1  0.841800  0.393779  0.578016  1
  Be  Be12  1  0.341834  0.106052  0.921976  1
  Be  Be13  1  0.658068  0.418430  0.266479  1
  Be  Be14  1  0.158875  0.081842  0.233996  1
  Be  Be15  1  0.341510  0.581942  0.733344  1
  Co  Co16  1  0.462495  0.250901  0.091261  1
  Co  Co17  1  0.036843  0.750480  0.591620  1
  Co  Co18  1  0.538647  0.749226  0.908315  1
  Co  Co19  1  0.958131  0.250596  0.409447  1
  Co  Co20  1  0.545346  0.254829  0.427037  1
  Co  Co21  1  0.051128  0.241579  0.072457  1
  Co  Co22  1  0.446591  0.746208  0.571735  1
  Co  Co23  1  0.953175  0.754435  0.927438  1
  Si  Si24  1  0.228806  0.918002  0.767074  1
  Si  Si25  1  0.728858  0.582700  0.732676  1
  Si  Si26  1  0.770029  0.082229  0.232549  1
  Si  Si27  1  0.270589  0.417667  0.267184  1
  Si  Si28  1  0.733249  0.109805  0.926048  1
  Si  Si29  1  0.233244  0.389908  0.574012  1
  Si  Si30  1  0.267608  0.889788  0.073963  1
  Si  Si31  1  0.767126  0.609438  0.426255  1
  Si  Si32  1  0.235159  0.445411  0.907376  1
  Si  Si33  1  0.736273  0.055099  0.592649  1
  Si  Si34  1  0.764637  0.554785  0.092592  1
  Si  Si35  1  0.264812  0.945583  0.407329  1
  O  O36  1  0.124352  0.745906  0.042801  1
  O  O37  1  0.035237  0.918811  0.820299  1
  O  O38  1  0.535210  0.585711  0.679514  1
  O  O39  1  0.964571  0.086268  0.179887  1
  O  O40  1  0.464237  0.419415  0.320375  1
  O  O41  1  0.535467  0.180171  0.953708  1
  O  O42  1  0.035811  0.319656  0.546450  1
  O  O43  1  0.464816  0.819262  0.045808  1
  O  O44  1  0.964803  0.679985  0.453933  1
  O  O45  1  0.035183  0.518485  0.885575  1
  O  O46  1  0.536470  0.981943  0.613924  1
  O  O47  1  0.964021  0.481305  0.114262  1
  O  O48  1  0.124905  0.066951  0.350468  1
  O  O49  1  0.624086  0.433884  0.149864  1
  O  O50  1  0.876132  0.933819  0.649895  1
  O  O51  1  0.375128  0.566998  0.850240  1
  O  O52  1  0.624735  0.754009  0.457132  1
  O  O53  1  0.465251  0.018548  0.385853  1
  O  O54  1  0.376030  0.245803  0.542714  1
  O  O55  1  0.875743  0.254245  0.956608  1
  O  O56  1  0.768121  0.069990  0.476384  1
  O  O57  1  0.622777  0.058900  0.146609  1
  O  O58  1  0.876968  0.559494  0.646902  1
  O  O59  1  0.377071  0.940199  0.852755  1
  O  O60  1  0.742064  0.423145  0.804922  1
  O  O61  1  0.243460  0.077364  0.694875  1
  O  O62  1  0.256338  0.577149  0.195014  1
  O  O63  1  0.757748  0.922693  0.304820  1
  O  O64  1  0.743080  0.080049  0.810184  1
  O  O65  1  0.244775  0.419551  0.689796  1
  O  O66  1  0.255503  0.919557  0.189740  1
  O  O67  1  0.756722  0.579747  0.310398  1
  O  O68  1  0.248691  0.257062  0.863925  1
  O  O69  1  0.749416  0.243214  0.636548  1
  O  O70  1  0.751034  0.743004  0.136479  1
  O  O71  1  0.251563  0.757068  0.363996  1
  O  O72  1  0.747173  0.748375  0.800513  1
  O  O73  1  0.244344  0.751434  0.699421  1
  O  O74  1  0.256157  0.250963  0.199805  1
  O  O75  1  0.751310  0.247670  0.300273  1
  O  O76  1  0.767591  0.930506  0.978719  1
  O  O77  1  0.266962  0.568492  0.520865  1
  O  O78  1  0.234223  0.068849  0.021053  1
  O  O79  1  0.733984  0.429413  0.478537  1
  O  O80  1  0.733258  0.570060  0.976432  1
  O  O81  1  0.235239  0.929662  0.523845  1
  O  O82  1  0.265330  0.430110  0.023705  1
  O  O83  1  0.122222  0.439667  0.353107  1
