# generated using pymatgen
data_ZnW3O7
_symmetry_space_group_name_H-M   'P 1'
_cell_length_a   6.56380909
_cell_length_b   11.43359918
_cell_length_c   7.89615523
_cell_angle_alpha   90.00000000
_cell_angle_beta   90.00000000
_cell_angle_gamma   90.00000000
_symmetry_Int_Tables_number   1
_chemical_formula_structural   ZnW3O7
_chemical_formula_sum   'Zn4 W12 O28'
_cell_volume   592.59035946
_cell_formula_units_Z   4
loop_
 _symmetry_equiv_pos_site_id
 _symmetry_equiv_pos_as_xyz
  1  'x, y, z'
loop_
 _atom_site_type_symbol
 _atom_site_label
 _atom_site_symmetry_multiplicity
 _atom_site_fract_x
 _atom_site_fract_y
 _atom_site_fract_z
 _atom_site_occupancy
  Zn  Zn0  1  0.614016  0.750000  0.007446  1
  Zn  Zn1  1  0.114017  0.250000  0.492554  1
  Zn  Zn2  1  0.385983  0.250000  0.992554  1
  Zn  Zn3  1  0.885984  0.750000  0.507446  1
  W  W4  1  0.255481  0.030876  0.237177  1
  W  W5  1  0.755481  0.969124  0.262823  1
  W  W6  1  0.744519  0.530876  0.762823  1
  W  W7  1  0.244519  0.469124  0.737177  1
  W  W8  1  0.252696  0.750000  0.261854  1
  W  W9  1  0.752696  0.250000  0.238146  1
  W  W10  1  0.747304  0.250000  0.738146  1
  W  W11  1  0.247304  0.750000  0.761854  1
  W  W12  1  0.755481  0.530876  0.262823  1
  W  W13  1  0.255481  0.469124  0.237177  1
  W  W14  1  0.244519  0.030876  0.737177  1
  W  W15  1  0.744519  0.969124  0.762823  1
  O  O16  1  0.947451  0.109313  0.752444  1
  O  O17  1  0.447451  0.890687  0.747556  1
  O  O18  1  0.052549  0.609313  0.247556  1
  O  O19  1  0.552549  0.390687  0.252444  1
  O  O20  1  0.052549  0.890687  0.247556  1
  O  O21  1  0.552549  0.109313  0.252444  1
  O  O22  1  0.947451  0.390687  0.752444  1
  O  O23  1  0.447451  0.609313  0.747556  1
  O  O24  1  0.546057  0.107003  0.728022  1
  O  O25  1  0.046057  0.892997  0.771978  1
  O  O26  1  0.453943  0.607003  0.271978  1
  O  O27  1  0.953943  0.392997  0.228022  1
  O  O28  1  0.453943  0.892997  0.271978  1
  O  O29  1  0.953943  0.107003  0.228022  1
  O  O30  1  0.546057  0.392997  0.728022  1
  O  O31  1  0.046057  0.607003  0.771978  1
  O  O32  1  0.185634  0.750000  0.511346  1
  O  O33  1  0.685634  0.250000  0.988654  1
  O  O34  1  0.814366  0.250000  0.488654  1
  O  O35  1  0.314366  0.750000  0.011346  1
  O  O36  1  0.270499  0.407892  0.991258  1
  O  O37  1  0.770499  0.592108  0.508742  1
  O  O38  1  0.729501  0.907892  0.008742  1
  O  O39  1  0.229501  0.092108  0.491258  1
  O  O40  1  0.729501  0.592108  0.008742  1
  O  O41  1  0.229501  0.407892  0.491258  1
  O  O42  1  0.270499  0.092108  0.991258  1
  O  O43  1  0.770499  0.907892  0.508742  1
