# generated using pymatgen
data_Ba2MgFe2CuF14
_symmetry_space_group_name_H-M   'P 1'
_cell_length_a   5.27904855
_cell_length_b   7.57562891
_cell_length_c   14.78073007
_cell_angle_alpha   91.77108680
_cell_angle_beta   90.09901844
_cell_angle_gamma   110.59296701
_symmetry_Int_Tables_number   1
_chemical_formula_structural   Ba2MgFe2CuF14
_chemical_formula_sum   'Ba4 Mg2 Fe4 Cu2 F28'
_cell_volume   553.02765127
_cell_formula_units_Z   2
loop_
 _symmetry_equiv_pos_site_id
 _symmetry_equiv_pos_as_xyz
  1  'x, y, z'
loop_
 _atom_site_type_symbol
 _atom_site_label
 _atom_site_symmetry_multiplicity
 _atom_site_fract_x
 _atom_site_fract_y
 _atom_site_fract_z
 _atom_site_occupancy
  Ba  Ba0  1  0.105787  0.371466  0.623942  1
  Ba  Ba1  1  0.263269  0.370554  0.123340  1
  Ba  Ba2  1  0.895138  0.627822  0.375998  1
  Ba  Ba3  1  0.734410  0.628795  0.876658  1
  Mg  Mg4  1  0.432337  0.996556  0.749894  1
  Mg  Mg5  1  0.567425  0.002987  0.249770  1
  Fe  Fe6  1  0.093861  0.235292  0.872652  1
  Fe  Fe7  1  0.903875  0.763423  0.127277  1
  Fe  Fe8  1  0.140731  0.234539  0.372749  1
  Fe  Fe9  1  0.859786  0.764199  0.627064  1
  Cu  Cu10  1  0.498363  0.999424  0.999657  1
  Cu  Cu11  1  0.500820  0.999593  0.499914  1
  F  F12  1  0.885674  0.987444  0.337687  1
  F  F13  1  0.870426  0.279457  0.454667  1
  F  F14  1  0.131443  0.719516  0.545664  1
  F  F15  1  0.646367  0.502905  0.599442  1
  F  F16  1  0.611903  0.092231  0.621519  1
  F  F17  1  0.513343  0.903213  0.878147  1
  F  F18  1  0.410645  0.280461  0.954315  1
  F  F19  1  0.894019  0.009608  0.162472  1
  F  F20  1  0.359997  0.330477  0.775708  1
  F  F21  1  0.353829  0.496296  0.399630  1
  F  F22  1  0.794808  0.212919  0.787999  1
  F  F23  1  0.139964  0.495386  0.901058  1
  F  F24  1  0.416417  0.215121  0.287716  1
  F  F25  1  0.204296  0.785811  0.211400  1
  F  F26  1  0.483027  0.095044  0.120949  1
  F  F27  1  0.639997  0.667926  0.224421  1
  F  F28  1  0.117410  0.840247  0.015146  1
  F  F29  1  0.115883  0.011142  0.662367  1
  F  F30  1  0.878971  0.158817  0.984337  1
  F  F31  1  0.720601  0.839019  0.515093  1
  F  F32  1  0.586893  0.718828  0.045704  1
  F  F33  1  0.582460  0.783676  0.711556  1
  F  F34  1  0.963729  0.324379  0.275327  1
  F  F35  1  0.282413  0.161027  0.484750  1
  F  F36  1  0.389771  0.907231  0.378261  1
  F  F37  1  0.103015  0.989037  0.837358  1
  F  F38  1  0.033354  0.672764  0.724754  1
  F  F39  1  0.857561  0.503304  0.098578  1
