# generated using pymatgen
data_TaZn2FeO6
_symmetry_space_group_name_H-M   'P 1'
_cell_length_a   5.26218871
_cell_length_b   5.34078935
_cell_length_c   7.71650945
_cell_angle_alpha   90.00000000
_cell_angle_beta   90.00000000
_cell_angle_gamma   89.17900123
_symmetry_Int_Tables_number   1
_chemical_formula_structural   TaZn2FeO6
_chemical_formula_sum   'Ta2 Zn4 Fe2 O12'
_cell_volume   216.84438095
_cell_formula_units_Z   2
loop_
 _symmetry_equiv_pos_site_id
 _symmetry_equiv_pos_as_xyz
  1  'x, y, z'
loop_
 _atom_site_type_symbol
 _atom_site_label
 _atom_site_symmetry_multiplicity
 _atom_site_fract_x
 _atom_site_fract_y
 _atom_site_fract_z
 _atom_site_occupancy
  Ta  Ta0  1  0.000000  0.500000  0.000000  1
  Ta  Ta1  1  0.000000  0.500000  0.500000  1
  Zn  Zn2  1  0.984106  0.982526  0.250000  1
  Zn  Zn3  1  0.496624  0.453699  0.250000  1
  Zn  Zn4  1  0.503376  0.546301  0.750000  1
  Zn  Zn5  1  0.015894  0.017474  0.750000  1
  Fe  Fe6  1  0.500000  0.000000  0.000000  1
  Fe  Fe7  1  0.500000  0.000000  0.500000  1
  O  O8  1  0.832908  0.820516  0.563688  1
  O  O9  1  0.319846  0.672546  0.435175  1
  O  O10  1  0.167092  0.179484  0.436312  1
  O  O11  1  0.680154  0.327454  0.935175  1
  O  O12  1  0.120752  0.434810  0.750000  1
  O  O13  1  0.680154  0.327454  0.564825  1
  O  O14  1  0.319846  0.672546  0.064825  1
  O  O15  1  0.832908  0.820516  0.936312  1
  O  O16  1  0.614801  0.079775  0.250000  1
  O  O17  1  0.167092  0.179484  0.063688  1
  O  O18  1  0.385199  0.920225  0.750000  1
  O  O19  1  0.879248  0.565190  0.250000  1
