# generated using pymatgen
data_Mg2CuN2
_symmetry_space_group_name_H-M   'P 1'
_cell_length_a   4.06814950
_cell_length_b   5.67194030
_cell_length_c   6.47921646
_cell_angle_alpha   69.07410024
_cell_angle_beta   71.60124302
_cell_angle_gamma   69.01371090
_symmetry_Int_Tables_number   1
_chemical_formula_structural   Mg2CuN2
_chemical_formula_sum   'Mg4 Cu2 N4'
_cell_volume   127.32344177
_cell_formula_units_Z   2
loop_
 _symmetry_equiv_pos_site_id
 _symmetry_equiv_pos_as_xyz
  1  'x, y, z'
loop_
 _atom_site_type_symbol
 _atom_site_label
 _atom_site_symmetry_multiplicity
 _atom_site_fract_x
 _atom_site_fract_y
 _atom_site_fract_z
 _atom_site_occupancy
  Mg  Mg0  1  0.670994  0.187351  0.467164  1
  Mg  Mg1  1  0.326154  0.812083  0.535666  1
  Mg  Mg2  1  0.040230  0.654009  0.267620  1
  Mg  Mg3  1  0.956406  0.348248  0.735788  1
  Cu  Cu4  1  0.354009  0.174300  0.110440  1
  Cu  Cu5  1  0.642086  0.827322  0.892679  1
  N  N6  1  0.175194  0.243291  0.403533  1
  N  N7  1  0.819886  0.759767  0.599606  1
  N  N8  1  0.478519  0.239258  0.800189  1
  N  N9  1  0.518423  0.763431  0.202821  1
