# generated using pymatgen
data_Ti2ZnO4
_symmetry_space_group_name_H-M   'P 1'
_cell_length_a   6.03785447
_cell_length_b   6.04742370
_cell_length_c   6.03196933
_cell_angle_alpha   89.99581441
_cell_angle_beta   119.91172578
_cell_angle_gamma   120.00912775
_symmetry_Int_Tables_number   1
_chemical_formula_structural   Ti2ZnO4
_chemical_formula_sum   'Ti4 Zn2 O8'
_cell_volume   155.93060175
_cell_formula_units_Z   2
loop_
 _symmetry_equiv_pos_site_id
 _symmetry_equiv_pos_as_xyz
  1  'x, y, z'
loop_
 _atom_site_type_symbol
 _atom_site_label
 _atom_site_symmetry_multiplicity
 _atom_site_fract_x
 _atom_site_fract_y
 _atom_site_fract_z
 _atom_site_occupancy
  Ti  Ti0  1  0.499893  0.999833  0.499944  1
  Ti  Ti1  1  0.499919  0.500070  0.499965  1
  Ti  Ti2  1  0.000100  0.500052  0.000173  1
  Ti  Ti3  1  0.000083  0.500043  0.499926  1
  Zn  Zn4  1  0.248934  0.124404  0.874765  1
  Zn  Zn5  1  0.751059  0.875612  0.125216  1
  O  O6  1  0.018356  0.741851  0.259107  1
  O  O7  1  0.481857  0.740662  0.723352  1
  O  O8  1  0.481824  0.741228  0.258354  1
  O  O9  1  0.981715  0.723528  0.740988  1
  O  O10  1  0.518251  0.258797  0.741610  1
  O  O11  1  0.518181  0.259362  0.276737  1
  O  O12  1  0.018265  0.276368  0.259012  1
  O  O13  1  0.981563  0.258188  0.740854  1
