# generated using pymatgen
data_ZnSn5O7
_symmetry_space_group_name_H-M   'P 1'
_cell_length_a   3.22469486
_cell_length_b   5.51707293
_cell_length_c   23.11626439
_cell_angle_alpha   90.00000000
_cell_angle_beta   90.00000000
_cell_angle_gamma   106.99252228
_symmetry_Int_Tables_number   1
_chemical_formula_structural   ZnSn5O7
_chemical_formula_sum   'Zn2 Sn10 O14'
_cell_volume   393.30425430
_cell_formula_units_Z   2
loop_
 _symmetry_equiv_pos_site_id
 _symmetry_equiv_pos_as_xyz
  1  'x, y, z'
loop_
 _atom_site_type_symbol
 _atom_site_label
 _atom_site_symmetry_multiplicity
 _atom_site_fract_x
 _atom_site_fract_y
 _atom_site_fract_z
 _atom_site_occupancy
  Zn  Zn0  1  0.852135  0.704268  0.750000  1
  Zn  Zn1  1  0.147866  0.295731  0.250000  1
  Sn  Sn2  1  0.281964  0.563925  0.586970  1
  Sn  Sn3  1  0.442208  0.884415  0.167018  1
  Sn  Sn4  1  -0.000000  -0.000000  0.500000  1
  Sn  Sn5  1  -0.000000  -0.000000  -0.000000  1
  Sn  Sn6  1  0.557792  0.115584  0.832983  1
  Sn  Sn7  1  0.718036  0.436074  0.413030  1
  Sn  Sn8  1  0.718036  0.436074  0.086970  1
  Sn  Sn9  1  0.281964  0.563925  0.913030  1
  Sn  Sn10  1  0.557792  0.115584  0.667017  1
  Sn  Sn11  1  0.442208  0.884415  0.332983  1
  O  O12  1  0.628798  0.257594  0.918346  1
  O  O13  1  0.371203  0.742407  0.081655  1
  O  O14  1  0.371203  0.742407  0.418345  1
  O  O15  1  0.628798  0.257594  0.581654  1
  O  O16  1  0.189556  0.379113  0.819345  1
  O  O17  1  0.810444  0.620887  0.180655  1
  O  O18  1  0.810444  0.620887  0.319346  1
  O  O19  1  0.189556  0.379113  0.680655  1
  O  O20  1  0.927922  0.855842  0.845367  1
  O  O21  1  0.072078  0.144158  0.154633  1
  O  O22  1  0.072078  0.144158  0.345367  1
  O  O23  1  0.927922  0.855842  0.654633  1
  O  O24  1  0.471716  0.943434  0.750000  1
  O  O25  1  0.528285  0.056568  0.250000  1
