# generated using pymatgen
data_Sr2CrCu2O7
_symmetry_space_group_name_H-M   'P 1'
_cell_length_a   5.16117343
_cell_length_b   5.31078319
_cell_length_c   13.06168036
_cell_angle_alpha   101.70662452
_cell_angle_beta   101.15906703
_cell_angle_gamma   90.18156342
_symmetry_Int_Tables_number   1
_chemical_formula_structural   Sr2CrCu2O7
_chemical_formula_sum   'Sr4 Cr2 Cu4 O14'
_cell_volume   343.60821275
_cell_formula_units_Z   2
loop_
 _symmetry_equiv_pos_site_id
 _symmetry_equiv_pos_as_xyz
  1  'x, y, z'
loop_
 _atom_site_type_symbol
 _atom_site_label
 _atom_site_symmetry_multiplicity
 _atom_site_fract_x
 _atom_site_fract_y
 _atom_site_fract_z
 _atom_site_occupancy
  Sr  Sr0  1  0.334637  0.346048  0.709835  1
  Sr  Sr1  1  0.628251  0.653689  0.290831  1
  Sr  Sr2  1  0.834509  0.863238  0.709869  1
  Sr  Sr3  1  0.128449  0.136519  0.290894  1
  Cr  Cr4  1  0.298073  0.681560  0.500294  1
  Cr  Cr5  1  0.797726  0.318622  0.500283  1
  Cu  Cu6  1  0.916878  0.441138  0.878203  1
  Cu  Cu7  1  0.044985  0.558604  0.122355  1
  Cu  Cu8  1  0.416542  0.936915  0.878182  1
  Cu  Cu9  1  0.545283  0.062833  0.122407  1
  O  O10  1  0.154308  0.358680  0.500227  1
  O  O11  1  0.654462  0.640980  0.500220  1
  O  O12  1  0.152708  0.175001  0.849363  1
  O  O13  1  0.310485  0.825942  0.153414  1
  O  O14  1  0.651656  0.173091  0.847195  1
  O  O15  1  0.809494  0.825778  0.151178  1
  O  O16  1  0.649992  0.671949  0.844482  1
  O  O17  1  0.812480  0.329092  0.158555  1
  O  O18  1  0.148802  0.670948  0.841978  1
  O  O19  1  0.311283  0.327207  0.156048  1
  O  O20  1  0.273925  0.856738  0.627824  1
  O  O21  1  0.648479  0.143093  0.372694  1
  O  O22  1  0.773843  0.270557  0.627818  1
  O  O23  1  0.148455  0.729020  0.372762  1
