# generated using pymatgen
data_Ca(AgO2)2
_symmetry_space_group_name_H-M   'P 1'
_cell_length_a   6.50411742
_cell_length_b   6.50411709
_cell_length_c   6.58234592
_cell_angle_alpha   59.60132431
_cell_angle_beta   59.60132775
_cell_angle_gamma   64.43171090
_symmetry_Int_Tables_number   1
_chemical_formula_structural   Ca(AgO2)2
_chemical_formula_sum   'Ca2 Ag4 O8'
_cell_volume   201.30858837
_cell_formula_units_Z   2
loop_
 _symmetry_equiv_pos_site_id
 _symmetry_equiv_pos_as_xyz
  1  'x, y, z'
loop_
 _atom_site_type_symbol
 _atom_site_label
 _atom_site_symmetry_multiplicity
 _atom_site_fract_x
 _atom_site_fract_y
 _atom_site_fract_z
 _atom_site_occupancy
  Ca  Ca0  1  0.125000  0.625000  0.625000  1
  Ca  Ca1  1  0.625000  0.125000  0.625000  1
  Ag  Ag2  1  0.001055  0.001055  0.998945  1
  Ag  Ag3  1  0.248945  0.248945  0.251055  1
  Ag  Ag4  1  0.625000  0.625000  0.125000  1
  Ag  Ag5  1  0.625000  0.625000  0.625000  1
  O  O6  1  0.391542  0.391542  0.381126  1
  O  O7  1  0.437461  0.844089  0.359225  1
  O  O8  1  0.391542  0.391542  0.835790  1
  O  O9  1  0.844089  0.437461  0.359225  1
  O  O10  1  0.405911  0.812540  0.890775  1
  O  O11  1  0.812540  0.405911  0.890775  1
  O  O12  1  0.858458  0.858458  0.414210  1
  O  O13  1  0.858458  0.858458  0.868874  1
