# generated using pymatgen
data_LaZnCrMoO6
_symmetry_space_group_name_H-M   'P 1'
_cell_length_a   5.42862500
_cell_length_b   5.57280310
_cell_length_c   7.98731277
_cell_angle_alpha   90.00000000
_cell_angle_beta   89.79762434
_cell_angle_gamma   90.00000000
_symmetry_Int_Tables_number   1
_chemical_formula_structural   LaZnCrMoO6
_chemical_formula_sum   'La2 Zn2 Cr2 Mo2 O12'
_cell_volume   241.63593615
_cell_formula_units_Z   2
loop_
 _symmetry_equiv_pos_site_id
 _symmetry_equiv_pos_as_xyz
  1  'x, y, z'
loop_
 _atom_site_type_symbol
 _atom_site_label
 _atom_site_symmetry_multiplicity
 _atom_site_fract_x
 _atom_site_fract_y
 _atom_site_fract_z
 _atom_site_occupancy
  La  La0  1  0.006395  0.960121  0.749716  1
  La  La1  1  0.506395  0.539879  0.249716  1
  Zn  Zn2  1  0.496489  0.499841  0.752712  1
  Zn  Zn3  1  0.996489  0.000159  0.252712  1
  Cr  Cr4  1  0.499204  0.004697  0.500973  1
  Cr  Cr5  1  0.999204  0.495303  0.000973  1
  Mo  Mo6  1  0.497744  0.012957  0.999035  1
  Mo  Mo7  1  0.997744  0.487043  0.499035  1
  O  O8  1  0.090473  0.448185  0.243709  1
  O  O9  1  0.208923  0.217168  0.939382  1
  O  O10  1  0.207013  0.203827  0.552889  1
  O  O11  1  0.313565  0.694395  0.942518  1
  O  O12  1  0.312263  0.692016  0.564450  1
  O  O13  1  0.367930  0.968405  0.254615  1
  O  O14  1  0.590473  0.051815  0.743709  1
  O  O15  1  0.708923  0.282832  0.439382  1
  O  O16  1  0.707013  0.296173  0.052889  1
  O  O17  1  0.813565  0.805605  0.442518  1
  O  O18  1  0.812263  0.807984  0.064450  1
  O  O19  1  0.867930  0.531595  0.754615  1
