# generated using pymatgen
data_ZnNi2P2O9
_symmetry_space_group_name_H-M   'P 1'
_cell_length_a   6.23456883
_cell_length_b   6.95437785
_cell_length_c   14.44124571
_cell_angle_alpha   90.03917861
_cell_angle_beta   90.00182159
_cell_angle_gamma   90.02589356
_symmetry_Int_Tables_number   1
_chemical_formula_structural   ZnNi2P2O9
_chemical_formula_sum   'Zn4 Ni8 P8 O36'
_cell_volume   626.13678443
_cell_formula_units_Z   4
loop_
 _symmetry_equiv_pos_site_id
 _symmetry_equiv_pos_as_xyz
  1  'x, y, z'
loop_
 _atom_site_type_symbol
 _atom_site_label
 _atom_site_symmetry_multiplicity
 _atom_site_fract_x
 _atom_site_fract_y
 _atom_site_fract_z
 _atom_site_occupancy
  Zn  Zn0  1  0.749982  0.885855  0.773258  1
  Zn  Zn1  1  0.750016  0.613836  0.273152  1
  Zn  Zn2  1  0.250024  0.114280  0.226736  1
  Zn  Zn3  1  0.249976  0.386670  0.726883  1
  Ni  Ni4  1  0.750291  0.360322  0.874203  1
  Ni  Ni5  1  0.249711  0.639830  0.125825  1
  Ni  Ni6  1  0.250362  0.860120  0.625772  1
  Ni  Ni7  1  0.749648  0.139672  0.374159  1
  Ni  Ni8  1  0.500015  0.000081  0.999975  1
  Ni  Ni9  1  0.499971  0.499813  0.500012  1
  Ni  Ni10  1  0.000012  0.499784  0.500005  1
  Ni  Ni11  1  0.000002  0.000090  0.999993  1
  P  P12  1  0.250210  0.368678  0.927587  1
  P  P13  1  0.749785  0.631508  0.072408  1
  P  P14  1  0.750248  0.868600  0.572379  1
  P  P15  1  0.249763  0.131077  0.427585  1
  P  P16  1  0.750078  0.383692  0.697164  1
  P  P17  1  0.249910  0.616289  0.302890  1
  P  P18  1  0.250109  0.883730  0.802878  1
  P  P19  1  0.749898  0.116487  0.197081  1
  O  O20  1  0.038569  0.604356  0.359975  1
  O  O21  1  0.538686  0.395623  0.640088  1
  O  O22  1  0.961304  0.104560  0.140016  1
  O  O23  1  0.461402  0.895563  0.859991  1
  O  O24  1  0.961422  0.395567  0.640075  1
  O  O25  1  0.461298  0.604300  0.359961  1
  O  O26  1  0.038738  0.895675  0.859944  1
  O  O27  1  0.538573  0.104684  0.139969  1
  O  O28  1  0.249278  0.322862  0.482401  1
  O  O29  1  0.750717  0.676710  0.517675  1
  O  O30  1  0.749306  0.823089  0.017627  1
  O  O31  1  0.250685  0.177060  0.982340  1
  O  O32  1  0.749993  0.153386  0.954405  1
  O  O33  1  0.250019  0.846801  0.045612  1
  O  O34  1  0.249995  0.652832  0.545635  1
  O  O35  1  0.749994  0.346718  0.454418  1
  O  O36  1  0.749912  0.197902  0.757716  1
  O  O37  1  0.250081  0.802122  0.242360  1
  O  O38  1  0.249943  0.697771  0.742270  1
  O  O39  1  0.750075  0.302315  0.257760  1
  O  O40  1  0.438034  0.128164  0.357603  1
  O  O41  1  0.938768  0.874295  0.642181  1
  O  O42  1  0.561375  0.625848  0.142199  1
  O  O43  1  0.061960  0.371820  0.857657  1
  O  O44  1  0.561965  0.871651  0.642379  1
  O  O45  1  0.061272  0.125497  0.357788  1
  O  O46  1  0.438628  0.374371  0.857821  1
  O  O47  1  0.938046  0.628392  0.142352  1
  O  O48  1  0.749376  0.951587  0.273361  1
  O  O49  1  0.250627  0.048417  0.726534  1
  O  O50  1  0.249460  0.451349  0.226453  1
  O  O51  1  0.750530  0.548718  0.773558  1
  O  O52  1  0.748890  0.027023  0.500645  1
  O  O53  1  0.251113  0.972394  0.499238  1
  O  O54  1  0.248981  0.527453  0.999413  1
  O  O55  1  0.750973  0.472712  0.000633  1
