# generated using pymatgen
data_Ca8Cr(PO4)7
_symmetry_space_group_name_H-M   'P 1'
_cell_length_a   13.83004522
_cell_length_b   13.82482135
_cell_length_c   13.83004539
_cell_angle_alpha   44.53953870
_cell_angle_beta   44.63732082
_cell_angle_gamma   44.53954057
_symmetry_Int_Tables_number   1
_chemical_formula_structural   Ca8Cr(PO4)7
_chemical_formula_sum   'Ca16 Cr2 P14 O56'
_cell_volume   1184.33730916
_cell_formula_units_Z   2
loop_
 _symmetry_equiv_pos_site_id
 _symmetry_equiv_pos_as_xyz
  1  'x, y, z'
loop_
 _atom_site_type_symbol
 _atom_site_label
 _atom_site_symmetry_multiplicity
 _atom_site_fract_x
 _atom_site_fract_y
 _atom_site_fract_z
 _atom_site_occupancy
  Ca  Ca0  1  0.356496  0.909841  0.930418  1
  Ca  Ca1  1  0.156288  0.562748  0.586067  1
  Ca  Ca2  1  0.064460  0.656653  0.075253  1
  Ca  Ca3  1  0.411382  0.856778  0.437632  1
  Ca  Ca4  1  0.980317  0.956020  0.548542  1
  Ca  Ca5  1  0.048542  0.456020  0.480317  1
  Ca  Ca6  1  0.570228  0.580066  0.154464  1
  Ca  Ca7  1  0.853292  0.438611  0.407581  1
  Ca  Ca8  1  0.907582  0.938611  0.353292  1
  Ca  Ca9  1  0.654464  0.080066  0.070228  1
  Ca  Ca10  1  0.086067  0.062748  0.656288  1
  Ca  Ca11  1  0.430418  0.409840  0.856496  1
  Ca  Ca12  1  0.937632  0.356778  0.911383  1
  Ca  Ca13  1  0.551314  0.971974  0.959348  1
  Ca  Ca14  1  0.575253  0.156653  0.564460  1
  Ca  Ca15  1  0.459348  0.471974  0.051314  1
  Cr  Cr16  1  0.501360  0.502973  0.502013  1
  Cr  Cr17  1  0.002013  0.002973  0.001360  1
  P  P18  1  0.720508  0.189979  0.686846  1
  P  P19  1  0.222056  0.185095  0.688156  1
  P  P20  1  0.188156  0.685095  0.722056  1
  P  P21  1  0.689637  0.220609  0.186898  1
  P  P22  1  0.314499  0.276755  0.818954  1
  P  P23  1  0.813021  0.320468  0.779650  1
  P  P24  1  0.318954  0.776755  0.814499  1
  P  P25  1  0.782239  0.811533  0.319447  1
  P  P26  1  0.819447  0.311533  0.282239  1
  P  P27  1  0.686898  0.720609  0.189637  1
  P  P28  1  0.767738  0.770295  0.768820  1
  P  P29  1  0.186846  0.689979  0.220508  1
  P  P30  1  0.279650  0.820468  0.313021  1
  P  P31  1  0.268820  0.270295  0.267738  1
  O  O32  1  0.632174  0.368394  0.614439  1
  O  O33  1  0.394086  0.265950  0.111541  1
  O  O34  1  0.903765  0.345953  0.280459  1
  O  O35  1  0.114439  0.868394  0.132174  1
  O  O36  1  0.360993  0.849096  0.646860  1
  O  O37  1  0.117888  0.836711  0.388977  1
  O  O38  1  0.376822  0.640394  0.384013  1
  O  O39  1  0.640747  0.370207  0.857794  1
  O  O40  1  0.398186  0.112683  0.834081  1
  O  O41  1  0.849323  0.663332  0.151586  1
  O  O42  1  0.387176  0.374849  0.640185  1
  O  O43  1  0.094478  0.650877  0.391952  1
  O  O44  1  0.357794  0.870207  0.140747  1
  O  O45  1  0.878632  0.883909  0.139720  1
  O  O46  1  0.662857  0.140064  0.854905  1
  O  O47  1  0.806478  0.826245  0.800389  1
  O  O48  1  0.113827  0.681130  0.681025  1
  O  O49  1  0.868479  0.132472  0.111384  1
  O  O50  1  0.868760  0.138125  0.362193  1
  O  O51  1  0.300389  0.326245  0.306478  1
  O  O52  1  0.670413  0.696883  0.110172  1
  O  O53  1  0.862193  0.638125  0.368760  1
  O  O54  1  0.891952  0.150877  0.594478  1
  O  O55  1  0.164530  0.354618  0.637581  1
  O  O56  1  0.354905  0.640064  0.162857  1
  O  O57  1  0.137581  0.854618  0.664531  1
  O  O58  1  0.653177  0.393252  0.093214  1
  O  O59  1  0.780459  0.845953  0.403765  1
  O  O60  1  0.611384  0.632472  0.368479  1
  O  O61  1  0.266957  0.904357  0.358103  1
  O  O62  1  0.593214  0.893252  0.153177  1
  O  O63  1  0.833657  0.384647  0.124000  1
  O  O64  1  0.858103  0.404357  0.766957  1
  O  O65  1  0.146860  0.349096  0.860993  1
  O  O66  1  0.892183  0.616641  0.759868  1
  O  O67  1  0.111243  0.397266  0.262840  1
  O  O68  1  0.610172  0.196883  0.170413  1
  O  O69  1  0.406091  0.764753  0.855124  1
  O  O70  1  0.888977  0.336711  0.617888  1
  O  O71  1  0.334081  0.612683  0.898186  1
  O  O72  1  0.140185  0.874849  0.887176  1
  O  O73  1  0.176068  0.613783  0.186462  1
  O  O74  1  0.884013  0.140394  0.876822  1
  O  O75  1  0.639720  0.383909  0.378632  1
  O  O76  1  0.624000  0.884647  0.333657  1
  O  O77  1  0.651586  0.163332  0.349323  1
  O  O78  1  0.161042  0.592303  0.888797  1
  O  O79  1  0.130141  0.114888  0.867933  1
  O  O80  1  0.611541  0.765950  0.894086  1
  O  O81  1  0.259868  0.116641  0.392183  1
  O  O82  1  0.355124  0.264753  0.906091  1
  O  O83  1  0.388797  0.092303  0.661042  1
  O  O84  1  0.181025  0.181130  0.613827  1
  O  O85  1  0.762840  0.897266  0.611243  1
  O  O86  1  0.367933  0.614888  0.630141  1
  O  O87  1  0.686462  0.113783  0.676068  1
