# generated using pymatgen
data_Zn3Si4(MoO7)2
_symmetry_space_group_name_H-M   'P 1'
_cell_length_a   8.00752414
_cell_length_b   9.93772742
_cell_length_c   9.20036166
_cell_angle_alpha   64.95336842
_cell_angle_beta   64.20361164
_cell_angle_gamma   66.24133940
_symmetry_Int_Tables_number   1
_chemical_formula_structural   Zn3Si4(MoO7)2
_chemical_formula_sum   'Zn6 Si8 Mo4 O28'
_cell_volume   575.33145572
_cell_formula_units_Z   2
loop_
 _symmetry_equiv_pos_site_id
 _symmetry_equiv_pos_as_xyz
  1  'x, y, z'
loop_
 _atom_site_type_symbol
 _atom_site_label
 _atom_site_symmetry_multiplicity
 _atom_site_fract_x
 _atom_site_fract_y
 _atom_site_fract_z
 _atom_site_occupancy
  Zn  Zn0  1  0.950303  0.904095  0.436984  1
  Zn  Zn1  1  0.291383  0.595905  0.063016  1
  Zn  Zn2  1  0.708617  0.404095  0.936984  1
  Zn  Zn3  1  0.607256  0.250000  0.750000  1
  Zn  Zn4  1  0.049697  0.095905  0.563016  1
  Zn  Zn5  1  0.392744  0.750000  0.250000  1
  Si  Si6  1  0.478854  0.292754  0.334957  1
  Si  Si7  1  0.893434  0.792754  0.834957  1
  Si  Si8  1  0.484095  0.901033  0.856766  1
  Si  Si9  1  0.758106  0.401033  0.356766  1
  Si  Si10  1  0.106566  0.207246  0.165043  1
  Si  Si11  1  0.515905  0.098967  0.143234  1
  Si  Si12  1  0.241894  0.598967  0.643234  1
  Si  Si13  1  0.521146  0.707246  0.665043  1
  Mo  Mo14  1  0.213453  0.250000  0.750000  1
  Mo  Mo15  1  0.786547  0.750000  0.250000  1
  Mo  Mo16  1  0.000000  0.000000  0.000000  1
  Mo  Mo17  1  0.000000  0.500000  0.500000  1
  O  O18  1  0.176014  0.655139  0.470902  1
  O  O19  1  0.057287  0.591410  0.239314  1
  O  O20  1  0.518907  0.917958  0.201204  1
  O  O21  1  0.111988  0.091410  0.739314  1
  O  O22  1  0.730649  0.671907  0.523203  1
  O  O23  1  0.950699  0.368871  0.194978  1
  O  O24  1  0.361931  0.417958  0.701204  1
  O  O25  1  0.925760  0.828093  0.976797  1
  O  O26  1  0.049302  0.631129  0.805022  1
  O  O27  1  0.360592  0.725349  0.587118  1
  O  O28  1  0.942713  0.408590  0.760686  1
  O  O29  1  0.269351  0.328093  0.476797  1
  O  O30  1  0.514550  0.131129  0.305022  1
  O  O31  1  0.697944  0.155139  0.970902  1
  O  O32  1  0.326941  0.225349  0.087118  1
  O  O33  1  0.074240  0.171907  0.023203  1
  O  O34  1  0.089141  0.071815  0.347188  1
  O  O35  1  0.639408  0.274651  0.412882  1
  O  O36  1  0.508143  0.428185  0.152812  1
  O  O37  1  0.673060  0.774651  0.912882  1
  O  O38  1  0.485450  0.868871  0.694978  1
  O  O39  1  0.888012  0.908590  0.260686  1
  O  O40  1  0.491857  0.571815  0.847188  1
  O  O41  1  0.481093  0.082042  0.798796  1
  O  O42  1  0.910859  0.928185  0.652812  1
  O  O43  1  0.638069  0.582042  0.298796  1
  O  O44  1  0.302056  0.844861  0.029098  1
  O  O45  1  0.823986  0.344861  0.529098  1
