# generated using pymatgen
data_Si2SnO6
_symmetry_space_group_name_H-M   'P 1'
_cell_length_a   5.41643064
_cell_length_b   6.66750387
_cell_length_c   6.66750358
_cell_angle_alpha   84.84609463
_cell_angle_beta   75.89176834
_cell_angle_gamma   75.89176853
_symmetry_Int_Tables_number   1
_chemical_formula_structural   Si2SnO6
_chemical_formula_sum   'Si4 Sn2 O12'
_cell_volume   226.36539902
_cell_formula_units_Z   2
loop_
 _symmetry_equiv_pos_site_id
 _symmetry_equiv_pos_as_xyz
  1  'x, y, z'
loop_
 _atom_site_type_symbol
 _atom_site_label
 _atom_site_symmetry_multiplicity
 _atom_site_fract_x
 _atom_site_fract_y
 _atom_site_fract_z
 _atom_site_occupancy
  Si  Si0  1  0.244724  0.216683  0.383278  1
  Si  Si1  1  0.255277  0.616721  0.783316  1
  Si  Si2  1  0.744724  0.383278  0.216683  1
  Si  Si3  1  0.755278  0.783316  0.616721  1
  Sn  Sn4  1  0.250001  0.110483  0.889515  1
  Sn  Sn5  1  0.750001  0.889516  0.110482  1
  O  O6  1  0.473178  0.343136  0.365165  1
  O  O7  1  0.026825  0.634837  0.656862  1
  O  O8  1  0.526826  0.656862  0.634838  1
  O  O9  1  0.973177  0.365166  0.343135  1
  O  O10  1  0.193653  0.099281  0.606340  1
  O  O11  1  0.306340  0.393660  0.900722  1
  O  O12  1  0.806340  0.900723  0.393661  1
  O  O13  1  0.693652  0.606340  0.099282  1
  O  O14  1  0.855503  0.188439  0.049248  1
  O  O15  1  0.644496  0.950751  0.811561  1
  O  O16  1  0.355502  0.049248  0.188440  1
  O  O17  1  0.144497  0.811562  0.950751  1
