# generated using pymatgen
data_ZnCr2(PO5)2
_symmetry_space_group_name_H-M   'P 1'
_cell_length_a   6.65207554
_cell_length_b   6.65167360
_cell_length_c   8.80070625
_cell_angle_alpha   102.55561089
_cell_angle_beta   102.54891282
_cell_angle_gamma   115.13847543
_symmetry_Int_Tables_number   1
_chemical_formula_structural   ZnCr2(PO5)2
_chemical_formula_sum   'Zn2 Cr4 P4 O20'
_cell_volume   322.28000556
_cell_formula_units_Z   2
loop_
 _symmetry_equiv_pos_site_id
 _symmetry_equiv_pos_as_xyz
  1  'x, y, z'
loop_
 _atom_site_type_symbol
 _atom_site_label
 _atom_site_symmetry_multiplicity
 _atom_site_fract_x
 _atom_site_fract_y
 _atom_site_fract_z
 _atom_site_occupancy
  Zn  Zn0  1  0.496842  0.996838  0.499994  1
  Zn  Zn1  1  0.246843  0.246847  0.000001  1
  Cr  Cr2  1  0.871621  0.619695  0.251246  1
  Cr  Cr3  1  0.368443  0.620385  0.748762  1
  Cr  Cr4  1  0.870355  0.118411  0.248726  1
  Cr  Cr5  1  0.869692  0.621629  0.751282  1
  P  P6  1  0.035953  0.036930  0.583423  1
  P  P7  1  0.702522  0.203487  0.916571  1
  P  P8  1  0.453492  0.452528  0.416567  1
  P  P9  1  0.286936  0.785953  0.083443  1
  O  O10  1  0.582369  0.557002  0.304787  1
  O  O11  1  0.663129  0.665433  0.838475  1
  O  O12  1  0.310304  0.586214  0.967904  1
  O  O13  1  0.807009  0.332366  0.804795  1
  O  O14  1  0.214433  0.236292  0.300830  1
  O  O15  1  0.426685  0.650654  0.530745  1
  O  O16  1  0.074105  0.576943  0.661510  1
  O  O17  1  0.826936  0.824366  0.161497  1
  O  O18  1  0.915448  0.412886  0.338512  1
  O  O19  1  0.163599  0.685466  0.199180  1
  O  O20  1  0.252197  0.277530  0.695206  1
  O  O21  1  0.486311  0.964460  0.800840  1
  O  O22  1  0.935438  0.913585  0.699166  1
  O  O23  1  0.145935  0.869907  0.969254  1
  O  O24  1  0.119888  0.895920  0.469246  1
  O  O25  1  0.900640  0.176671  0.030738  1
  O  O26  1  0.836217  0.060281  0.467902  1
  O  O27  1  0.618326  0.342419  0.032104  1
  O  O28  1  0.527551  0.002191  0.195194  1
  O  O29  1  0.592380  0.368312  0.532104  1
