# generated using pymatgen
data_Sr2YCu2SbO7
_symmetry_space_group_name_H-M   'P 1'
_cell_length_a   5.42562757
_cell_length_b   5.45648801
_cell_length_c   12.91683648
_cell_angle_alpha   102.18298060
_cell_angle_beta   102.12763657
_cell_angle_gamma   90.17300120
_symmetry_Int_Tables_number   1
_chemical_formula_structural   Sr2YCu2SbO7
_chemical_formula_sum   'Sr4 Y2 Cu4 Sb2 O14'
_cell_volume   364.99791686
_cell_formula_units_Z   2
loop_
 _symmetry_equiv_pos_site_id
 _symmetry_equiv_pos_as_xyz
  1  'x, y, z'
loop_
 _atom_site_type_symbol
 _atom_site_label
 _atom_site_symmetry_multiplicity
 _atom_site_fract_x
 _atom_site_fract_y
 _atom_site_fract_z
 _atom_site_occupancy
  Sr  Sr0  1  0.339336  0.364979  0.716130  1
  Sr  Sr1  1  0.623873  0.635562  0.284245  1
  Sr  Sr2  1  0.839101  0.851250  0.716162  1
  Sr  Sr3  1  0.124590  0.149156  0.284135  1
  Y  Y4  1  0.985237  0.000406  0.000064  1
  Y  Y5  1  0.485201  0.500623  0.000161  1
  Cu  Cu6  1  0.918282  0.433595  0.867326  1
  Cu  Cu7  1  0.051416  0.567278  0.133092  1
  Cu  Cu8  1  0.418448  0.934670  0.867935  1
  Cu  Cu9  1  0.551402  0.066322  0.132302  1
  Sb  Sb10  1  0.259434  0.742805  0.500129  1
  Sb  Sb11  1  0.757051  0.256700  0.500049  1
  O  O12  1  0.118936  0.386222  0.500035  1
  O  O13  1  0.620150  0.613224  0.500501  1
  O  O14  1  0.180602  0.195746  0.880706  1
  O  O15  1  0.300942  0.804663  0.119606  1
  O  O16  1  0.680578  0.185388  0.881095  1
  O  O17  1  0.800687  0.816231  0.119304  1
  O  O18  1  0.669776  0.685996  0.880573  1
  O  O19  1  0.789441  0.315584  0.119742  1
  O  O20  1  0.170184  0.696233  0.881110  1
  O  O21  1  0.289606  0.304466  0.119318  1
  O  O22  1  0.323257  0.825438  0.672865  1
  O  O23  1  0.650155  0.174871  0.327493  1
  O  O24  1  0.822899  0.346946  0.672984  1
  O  O25  1  0.152547  0.652692  0.327346  1
