# generated using pymatgen
data_VAs2O7
_symmetry_space_group_name_H-M   'P 1'
_cell_length_a   7.14858209
_cell_length_b   9.13760607
_cell_length_c   9.45436835
_cell_angle_alpha   90.00000000
_cell_angle_beta   106.51216300
_cell_angle_gamma   90.00000000
_symmetry_Int_Tables_number   1
_chemical_formula_structural   VAs2O7
_chemical_formula_sum   'V4 As8 O28'
_cell_volume   592.09923919
_cell_formula_units_Z   4
loop_
 _symmetry_equiv_pos_site_id
 _symmetry_equiv_pos_as_xyz
  1  'x, y, z'
loop_
 _atom_site_type_symbol
 _atom_site_label
 _atom_site_symmetry_multiplicity
 _atom_site_fract_x
 _atom_site_fract_y
 _atom_site_fract_z
 _atom_site_occupancy
  V  V0  1  0.803651  0.072712  0.707915  1
  V  V1  1  0.196349  0.572712  0.792085  1
  V  V2  1  0.196349  0.927288  0.292085  1
  V  V3  1  0.803651  0.427288  0.207915  1
  As  As4  1  0.415590  0.249794  0.760754  1
  As  As5  1  0.584410  0.749794  0.739246  1
  As  As6  1  0.584410  0.750206  0.239246  1
  As  As7  1  0.415590  0.250206  0.260754  1
  As  As8  1  0.027152  0.295594  0.960180  1
  As  As9  1  0.972848  0.795594  0.539820  1
  As  As10  1  0.972848  0.704406  0.039820  1
  As  As11  1  0.027152  0.204406  0.460180  1
  O  O12  1  0.846001  0.328892  0.046105  1
  O  O13  1  0.153999  0.828892  0.453895  1
  O  O14  1  0.153999  0.671108  0.953895  1
  O  O15  1  0.846001  0.171108  0.546105  1
  O  O16  1  0.368524  0.440471  0.753550  1
  O  O17  1  0.631476  0.940471  0.746450  1
  O  O18  1  0.631476  0.559529  0.246450  1
  O  O19  1  0.368524  0.059529  0.253550  1
  O  O20  1  0.380523  0.168100  0.905805  1
  O  O21  1  0.619477  0.668100  0.594195  1
  O  O22  1  0.619477  0.831900  0.094195  1
  O  O23  1  0.380523  0.331900  0.405805  1
  O  O24  1  0.244800  0.172186  0.597386  1
  O  O25  1  0.755200  0.672186  0.902614  1
  O  O26  1  0.755200  0.827814  0.402614  1
  O  O27  1  0.244800  0.327814  0.097386  1
  O  O28  1  0.020632  0.084577  0.320893  1
  O  O29  1  0.979368  0.584577  0.179107  1
  O  O30  1  0.979368  0.915423  0.679107  1
  O  O31  1  0.020632  0.415423  0.820893  1
  O  O32  1  0.638012  0.264409  0.228437  1
  O  O33  1  0.361988  0.764409  0.271563  1
  O  O34  1  0.361988  0.735591  0.771563  1
  O  O35  1  0.638012  0.235591  0.728437  1
  O  O36  1  0.990180  0.379169  0.387774  1
  O  O37  1  0.009820  0.879169  0.112226  1
  O  O38  1  0.009820  0.620831  0.612226  1
  O  O39  1  0.990180  0.120831  0.887774  1
