# generated using pymatgen
data_WS2
_symmetry_space_group_name_H-M   'P 1'
_cell_length_a   5.39093886
_cell_length_b   5.39093801
_cell_length_c   6.26827686
_cell_angle_alpha   115.46868885
_cell_angle_beta   115.46868181
_cell_angle_gamma   89.99998387
_symmetry_Int_Tables_number   1
_chemical_formula_structural   WS2
_chemical_formula_sum   'W2 S4'
_cell_volume   144.61243573
_cell_formula_units_Z   2
loop_
 _symmetry_equiv_pos_site_id
 _symmetry_equiv_pos_as_xyz
  1  'x, y, z'
loop_
 _atom_site_type_symbol
 _atom_site_label
 _atom_site_symmetry_multiplicity
 _atom_site_fract_x
 _atom_site_fract_y
 _atom_site_fract_z
 _atom_site_occupancy
  W  W0  1  0.250000  0.750000  0.500000  1
  W  W1  1  0.000000  0.000000  0.000000  1
  S  S2  1  0.875395  0.875000  0.250000  1
  S  S3  1  0.625000  0.124605  0.750000  1
  S  S4  1  0.374605  0.375000  0.250000  1
  S  S5  1  0.125000  0.625395  0.750000  1
