# generated using pymatgen
data_CaCu3(MoO3)4
_symmetry_space_group_name_H-M   'P 1'
_cell_length_a   6.64394195
_cell_length_b   6.64823953
_cell_length_c   6.67614236
_cell_angle_alpha   109.56256962
_cell_angle_beta   109.53785791
_cell_angle_gamma   109.39010267
_symmetry_Int_Tables_number   1
_chemical_formula_structural   CaCu3(MoO3)4
_chemical_formula_sum   'Ca1 Cu3 Mo4 O12'
_cell_volume   226.78934203
_cell_formula_units_Z   1
loop_
 _symmetry_equiv_pos_site_id
 _symmetry_equiv_pos_as_xyz
  1  'x, y, z'
loop_
 _atom_site_type_symbol
 _atom_site_label
 _atom_site_symmetry_multiplicity
 _atom_site_fract_x
 _atom_site_fract_y
 _atom_site_fract_z
 _atom_site_occupancy
  Ca  Ca0  1  0.000000  -0.000000  0.000001  1
  Cu  Cu1  1  0.499999  0.500000  -0.000000  1
  Cu  Cu2  1  -0.000001  0.500001  0.499999  1
  Cu  Cu3  1  0.500000  0.000001  0.500000  1
  Mo  Mo4  1  0.000000  0.000000  0.500000  1
  Mo  Mo5  1  -0.000000  0.500000  0.000000  1
  Mo  Mo6  1  0.500000  0.500000  0.500000  1
  Mo  Mo7  1  0.500000  0.000000  0.000000  1
  O  O8  1  0.824013  0.299585  0.133728  1
  O  O9  1  0.175988  0.700415  0.866272  1
  O  O10  1  0.829571  0.696102  0.525122  1
  O  O11  1  0.299356  0.475081  0.165911  1
  O  O12  1  0.477000  0.176757  0.310462  1
  O  O13  1  0.133590  0.829610  0.303775  1
  O  O14  1  0.695452  0.866177  0.170722  1
  O  O15  1  0.523000  0.823243  0.689538  1
  O  O16  1  0.170429  0.303897  0.474878  1
  O  O17  1  0.700644  0.524918  0.834089  1
  O  O18  1  0.866409  0.170390  0.696225  1
  O  O19  1  0.304548  0.133823  0.829278  1
