# generated using pymatgen
data_Ca(SbO2)2
_symmetry_space_group_name_H-M   'P 1'
_cell_length_a   3.33581083
_cell_length_b   5.84385549
_cell_length_c   11.22296553
_cell_angle_alpha   90.00000000
_cell_angle_beta   90.00000000
_cell_angle_gamma   106.58346640
_symmetry_Int_Tables_number   1
_chemical_formula_structural   Ca(SbO2)2
_chemical_formula_sum   'Ca2 Sb4 O8'
_cell_volume   209.68027154
_cell_formula_units_Z   2
loop_
 _symmetry_equiv_pos_site_id
 _symmetry_equiv_pos_as_xyz
  1  'x, y, z'
loop_
 _atom_site_type_symbol
 _atom_site_label
 _atom_site_symmetry_multiplicity
 _atom_site_fract_x
 _atom_site_fract_y
 _atom_site_fract_z
 _atom_site_occupancy
  Ca  Ca0  1  0.385531  0.771062  0.750000  1
  Ca  Ca1  1  0.614469  0.228938  0.250000  1
  Sb  Sb2  1  0.867593  0.735186  0.077933  1
  Sb  Sb3  1  0.132408  0.264814  0.922067  1
  Sb  Sb4  1  0.867593  0.735186  0.422067  1
  Sb  Sb5  1  0.132408  0.264814  0.577933  1
  O  O6  1  0.228761  0.457522  0.378163  1
  O  O7  1  0.771239  0.542478  0.621837  1
  O  O8  1  0.771239  0.542478  0.878163  1
  O  O9  1  0.228761  0.457522  0.121837  1
  O  O10  1  0.962327  0.924654  0.250000  1
  O  O11  1  0.037673  0.075346  0.750000  1
  O  O12  1  0.500000  0.000000  0.000000  1
  O  O13  1  0.500000  0.000000  0.500000  1
