# generated using pymatgen
data_BiF5
_symmetry_space_group_name_H-M   'P 1'
_cell_length_a   3.88513012
_cell_length_b   5.58501929
_cell_length_c   5.58501935
_cell_angle_alpha   50.36188491
_cell_angle_beta   69.64615714
_cell_angle_gamma   69.64614501
_symmetry_Int_Tables_number   1
_chemical_formula_structural   BiF5
_chemical_formula_sum   'Bi1 F5'
_cell_volume   86.15637851
_cell_formula_units_Z   1
loop_
 _symmetry_equiv_pos_site_id
 _symmetry_equiv_pos_as_xyz
  1  'x, y, z'
loop_
 _atom_site_type_symbol
 _atom_site_label
 _atom_site_symmetry_multiplicity
 _atom_site_fract_x
 _atom_site_fract_y
 _atom_site_fract_z
 _atom_site_occupancy
  Bi  Bi0  1  0.000000  0.000000  0.000000  1
  F  F1  1  0.500000  0.760618  0.239382  1
  F  F2  1  0.500000  0.239382  0.760618  1
  F  F3  1  0.783922  0.216078  0.216078  1
  F  F4  1  0.216078  0.783922  0.783922  1
  F  F5  1  0.000000  0.500000  0.500000  1
