# generated using pymatgen
data_CaNiBiO5
_symmetry_space_group_name_H-M   'P 1'
_cell_length_a   5.61103514
_cell_length_b   11.05109158
_cell_length_c   15.59858163
_cell_angle_alpha   90.00000000
_cell_angle_beta   90.00000000
_cell_angle_gamma   90.00000000
_symmetry_Int_Tables_number   1
_chemical_formula_structural   CaNiBiO5
_chemical_formula_sum   'Ca8 Ni8 Bi8 O40'
_cell_volume   967.23783540
_cell_formula_units_Z   8
loop_
 _symmetry_equiv_pos_site_id
 _symmetry_equiv_pos_as_xyz
  1  'x, y, z'
loop_
 _atom_site_type_symbol
 _atom_site_label
 _atom_site_symmetry_multiplicity
 _atom_site_fract_x
 _atom_site_fract_y
 _atom_site_fract_z
 _atom_site_occupancy
  Ca  Ca0  1  0.512508  0.359258  0.448960  1
  Ca  Ca1  1  0.012508  0.140742  0.448960  1
  Ca  Ca2  1  0.012508  0.640742  0.051040  1
  Ca  Ca3  1  0.987492  0.359258  0.948960  1
  Ca  Ca4  1  0.487492  0.140742  0.948960  1
  Ca  Ca5  1  0.987492  0.859258  0.551040  1
  Ca  Ca6  1  0.487492  0.640742  0.551040  1
  Ca  Ca7  1  0.512508  0.859258  0.051040  1
  Ni  Ni8  1  0.988852  0.404684  0.595740  1
  Ni  Ni9  1  0.511148  0.904684  0.404260  1
  Ni  Ni10  1  0.011148  0.595316  0.404260  1
  Ni  Ni11  1  0.488852  0.095316  0.595740  1
  Ni  Ni12  1  0.011148  0.095316  0.095740  1
  Ni  Ni13  1  0.988852  0.904684  0.904260  1
  Ni  Ni14  1  0.511148  0.404684  0.095740  1
  Ni  Ni15  1  0.488852  0.595316  0.904260  1
  Bi  Bi16  1  0.933431  0.841504  0.235151  1
  Bi  Bi17  1  0.066569  0.158496  0.764849  1
  Bi  Bi18  1  0.566569  0.341504  0.764849  1
  Bi  Bi19  1  0.066569  0.658496  0.735151  1
  Bi  Bi20  1  0.433431  0.158496  0.264849  1
  Bi  Bi21  1  0.433431  0.658496  0.235151  1
  Bi  Bi22  1  0.566569  0.841504  0.735151  1
  Bi  Bi23  1  0.933431  0.341504  0.264849  1
  O  O24  1  0.900945  0.308181  0.692324  1
  O  O25  1  0.295184  0.039527  0.063770  1
  O  O26  1  0.204816  0.539527  0.936230  1
  O  O27  1  0.236821  0.781056  0.155256  1
  O  O28  1  0.263178  0.281056  0.844744  1
  O  O29  1  0.900945  0.808181  0.807676  1
  O  O30  1  0.263178  0.781056  0.655256  1
  O  O31  1  0.599055  0.808181  0.307676  1
  O  O32  1  0.295184  0.539527  0.436230  1
  O  O33  1  0.099055  0.691819  0.307676  1
  O  O34  1  0.599055  0.308181  0.192324  1
  O  O35  1  0.651954  0.181794  0.521163  1
  O  O36  1  0.795184  0.960473  0.436230  1
  O  O37  1  0.763178  0.718944  0.655256  1
  O  O38  1  0.193802  0.017213  0.849157  1
  O  O39  1  0.795184  0.460473  0.063770  1
  O  O40  1  0.099055  0.191819  0.192324  1
  O  O41  1  0.736822  0.218944  0.344744  1
  O  O42  1  0.151954  0.818206  0.978837  1
  O  O43  1  0.204816  0.039527  0.563770  1
  O  O44  1  0.348046  0.818206  0.478837  1
  O  O45  1  0.806198  0.982787  0.150843  1
  O  O46  1  0.763178  0.218944  0.844744  1
  O  O47  1  0.693802  0.982787  0.650843  1
  O  O48  1  0.348046  0.318206  0.021163  1
  O  O49  1  0.151954  0.318206  0.521163  1
  O  O50  1  0.704816  0.460473  0.563770  1
  O  O51  1  0.704816  0.960473  0.936230  1
  O  O52  1  0.693802  0.482787  0.849157  1
  O  O53  1  0.848046  0.681794  0.478837  1
  O  O54  1  0.848046  0.181794  0.021163  1
  O  O55  1  0.651954  0.681794  0.978837  1
  O  O56  1  0.806198  0.482787  0.349157  1
  O  O57  1  0.736822  0.718944  0.155256  1
  O  O58  1  0.236821  0.281056  0.344744  1
  O  O59  1  0.193802  0.517213  0.650843  1
  O  O60  1  0.306198  0.517213  0.150843  1
  O  O61  1  0.400945  0.191819  0.692324  1
  O  O62  1  0.306198  0.017213  0.349157  1
  O  O63  1  0.400945  0.691819  0.807676  1
