# generated using pymatgen
data_Y2V3O9
_symmetry_space_group_name_H-M   'P 1'
_cell_length_a   5.28496128
_cell_length_b   16.37200369
_cell_length_c   7.63349433
_cell_angle_alpha   90.00036942
_cell_angle_beta   89.97404345
_cell_angle_gamma   89.97639448
_symmetry_Int_Tables_number   1
_chemical_formula_structural   Y2V3O9
_chemical_formula_sum   'Y8 V12 O36'
_cell_volume   660.49106898
_cell_formula_units_Z   4
loop_
 _symmetry_equiv_pos_site_id
 _symmetry_equiv_pos_as_xyz
  1  'x, y, z'
loop_
 _atom_site_type_symbol
 _atom_site_label
 _atom_site_symmetry_multiplicity
 _atom_site_fract_x
 _atom_site_fract_y
 _atom_site_fract_z
 _atom_site_occupancy
  Y  Y0  1  0.483003  0.521379  0.748587  1
  Y  Y1  1  0.491296  0.849639  0.749833  1
  Y  Y2  1  0.991658  0.317057  0.249132  1
  Y  Y3  1  0.983480  0.645204  0.251407  1
  Y  Y4  1  0.516369  0.145175  0.247672  1
  Y  Y5  1  0.508672  0.816965  0.250421  1
  Y  Y6  1  0.016838  0.021428  0.752313  1
  Y  Y7  1  0.008768  0.349849  0.750483  1
  V  V8  1  0.994805  0.165845  0.503761  1
  V  V9  1  0.985930  0.497965  0.490674  1
  V  V10  1  0.996436  0.833945  0.502137  1
  V  V11  1  0.495275  0.000324  0.496558  1
  V  V12  1  0.496590  0.332690  0.497429  1
  V  V13  1  0.485539  0.668866  0.509571  1
  V  V14  1  0.013737  0.168992  0.990726  1
  V  V15  1  0.004368  0.500250  0.003687  1
  V  V16  1  0.003373  0.832656  0.002191  1
  V  V17  1  0.514075  0.997873  0.009276  1
  V  V18  1  0.503327  0.333838  0.997452  1
  V  V19  1  0.504191  0.666095  0.996511  1
  O  O20  1  0.788923  0.076912  0.458783  1
  O  O21  1  0.808599  0.394350  0.469238  1
  O  O22  1  0.783772  0.735648  0.436153  1
  O  O23  1  0.288609  0.089959  0.540985  1
  O  O24  1  0.284539  0.430806  0.562983  1
  O  O25  1  0.310821  0.772212  0.530977  1
  O  O26  1  0.189790  0.270155  0.531389  1
  O  O27  1  0.230485  0.594890  0.528147  1
  O  O28  1  0.206678  0.929321  0.565870  1
  O  O29  1  0.706669  0.237587  0.434789  1
  O  O30  1  0.730316  0.571444  0.472194  1
  O  O31  1  0.686037  0.897160  0.468527  1
  O  O32  1  0.187995  0.272155  0.969018  1
  O  O33  1  0.211240  0.590011  0.959858  1
  O  O34  1  0.215679  0.930649  0.936397  1
  O  O35  1  0.716400  0.235402  0.063755  1
  O  O36  1  0.711499  0.576962  0.041142  1
  O  O37  1  0.690391  0.894356  0.030815  1
  O  O38  1  0.769780  0.071481  0.027547  1
  O  O39  1  0.814283  0.397158  0.031265  1
  O  O40  1  0.793573  0.737566  0.065297  1
  O  O41  1  0.269629  0.095022  0.972042  1
  O  O42  1  0.292628  0.429286  0.933970  1
  O  O43  1  0.312623  0.769903  0.968671  1
  O  O44  1  0.937813  0.164484  0.749326  1
  O  O45  1  0.892913  0.486803  0.753072  1
  O  O46  1  0.923018  0.824477  0.748500  1
  O  O47  1  0.437193  0.002514  0.250368  1
  O  O48  1  0.423210  0.341986  0.247840  1
  O  O49  1  0.392159  0.680160  0.247205  1
  O  O50  1  0.107597  0.180169  0.253353  1
  O  O51  1  0.062866  0.502274  0.249799  1
  O  O52  1  0.076742  0.841972  0.250388  1
  O  O53  1  0.577698  0.324691  0.752720  1
  O  O54  1  0.562304  0.664293  0.750609  1
  O  O55  1  0.607800  0.986413  0.747186  1
