# generated using pymatgen
data_ReWO6
_symmetry_space_group_name_H-M   'P 1'
_cell_length_a   5.32979485
_cell_length_b   5.38250509
_cell_length_c   7.57997279
_cell_angle_alpha   90.00000000
_cell_angle_beta   90.01036967
_cell_angle_gamma   90.00000000
_symmetry_Int_Tables_number   1
_chemical_formula_structural   ReWO6
_chemical_formula_sum   'Re2 W2 O12'
_cell_volume   217.45158698
_cell_formula_units_Z   2
loop_
 _symmetry_equiv_pos_site_id
 _symmetry_equiv_pos_as_xyz
  1  'x, y, z'
loop_
 _atom_site_type_symbol
 _atom_site_label
 _atom_site_symmetry_multiplicity
 _atom_site_fract_x
 _atom_site_fract_y
 _atom_site_fract_z
 _atom_site_occupancy
  Re  Re0  1  0.500000  0.000000  0.000000  1
  Re  Re1  1  0.000001  0.499999  0.500000  1
  W  W2  1  0.500000  0.000000  0.499999  1
  W  W3  1  0.000000  0.499999  0.000000  1
  O  O4  1  0.723141  0.281916  0.474047  1
  O  O5  1  0.776859  0.781917  0.025953  1
  O  O6  1  0.276858  0.718084  0.525953  1
  O  O7  1  0.223142  0.218083  0.974047  1
  O  O8  1  0.217732  0.223635  0.525977  1
  O  O9  1  0.282268  0.723634  0.974023  1
  O  O10  1  0.782269  0.776365  0.474023  1
  O  O11  1  0.717731  0.276366  0.025977  1
  O  O12  1  0.053064  0.494278  0.252636  1
  O  O13  1  0.446937  0.994279  0.247363  1
  O  O14  1  0.553064  0.005721  0.752637  1
  O  O15  1  0.946937  0.505722  0.747364  1
