# generated using pymatgen
data_BaMgVF7
_symmetry_space_group_name_H-M   'P 1'
_cell_length_a   5.66080163
_cell_length_b   9.72827811
_cell_length_c   10.03027860
_cell_angle_alpha   90.00000000
_cell_angle_beta   90.00000000
_cell_angle_gamma   92.97060881
_symmetry_Int_Tables_number   1
_chemical_formula_structural   BaMgVF7
_chemical_formula_sum   'Ba4 Mg4 V4 F28'
_cell_volume   551.62372238
_cell_formula_units_Z   4
loop_
 _symmetry_equiv_pos_site_id
 _symmetry_equiv_pos_as_xyz
  1  'x, y, z'
loop_
 _atom_site_type_symbol
 _atom_site_label
 _atom_site_symmetry_multiplicity
 _atom_site_fract_x
 _atom_site_fract_y
 _atom_site_fract_z
 _atom_site_occupancy
  Ba  Ba0  1  0.264455  0.498784  0.320776  1
  Ba  Ba1  1  0.735545  0.001216  0.820776  1
  Ba  Ba2  1  0.735545  0.501216  0.679224  1
  Ba  Ba3  1  0.264455  0.998784  0.179224  1
  Mg  Mg4  1  0.693725  0.810533  0.395893  1
  Mg  Mg5  1  0.306275  0.689467  0.895893  1
  Mg  Mg6  1  0.693725  0.310533  0.104107  1
  Mg  Mg7  1  0.306275  0.189467  0.604107  1
  V  V8  1  0.193322  0.812019  0.612113  1
  V  V9  1  0.806678  0.187981  0.387887  1
  V  V10  1  0.193322  0.312019  0.887887  1
  V  V11  1  0.806678  0.687981  0.112113  1
  F  F12  1  0.115299  0.125420  0.448205  1
  F  F13  1  0.372045  0.369508  0.052363  1
  F  F14  1  0.474656  0.750807  0.713014  1
  F  F15  1  0.525344  0.249193  0.286986  1
  F  F16  1  0.888063  0.368167  0.457652  1
  F  F17  1  0.257644  0.499100  0.810565  1
  F  F18  1  0.026624  0.750389  0.781950  1
  F  F19  1  0.111937  0.131833  0.957652  1
  F  F20  1  0.372045  0.869508  0.447637  1
  F  F21  1  0.525344  0.749193  0.213014  1
  F  F22  1  0.115299  0.625420  0.051795  1
  F  F23  1  0.884701  0.874580  0.551795  1
  F  F24  1  0.973376  0.749611  0.281950  1
  F  F25  1  0.386305  0.873458  0.958252  1
  F  F26  1  0.111937  0.631833  0.542348  1
  F  F27  1  0.888063  0.868167  0.042348  1
  F  F28  1  0.973376  0.249611  0.218050  1
  F  F29  1  0.884701  0.374580  0.948205  1
  F  F30  1  0.613695  0.626542  0.458252  1
  F  F31  1  0.627955  0.630492  0.947637  1
  F  F32  1  0.613695  0.126542  0.041748  1
  F  F33  1  0.026624  0.250389  0.718050  1
  F  F34  1  0.386305  0.373458  0.541748  1
  F  F35  1  0.742356  0.000900  0.310565  1
  F  F36  1  0.742356  0.500900  0.189435  1
  F  F37  1  0.257644  0.999100  0.689435  1
  F  F38  1  0.627955  0.130492  0.552363  1
  F  F39  1  0.474656  0.250807  0.786986  1
