# generated using pymatgen
data_Al4Cr13Si2(SbO14)2
_symmetry_space_group_name_H-M   'P 1'
_cell_length_a   5.75642549
_cell_length_b   8.69069283
_cell_length_c   12.10712178
_cell_angle_alpha   87.34192951
_cell_angle_beta   76.29849638
_cell_angle_gamma   78.73812137
_symmetry_Int_Tables_number   1
_chemical_formula_structural   Al4Cr13Si2(SbO14)2
_chemical_formula_sum   'Al4 Cr13 Si2 Sb2 O28'
_cell_volume   577.12009916
_cell_formula_units_Z   1
loop_
 _symmetry_equiv_pos_site_id
 _symmetry_equiv_pos_as_xyz
  1  'x, y, z'
loop_
 _atom_site_type_symbol
 _atom_site_label
 _atom_site_symmetry_multiplicity
 _atom_site_fract_x
 _atom_site_fract_y
 _atom_site_fract_z
 _atom_site_occupancy
  Al  Al0  1  0.071721  0.665709  0.435793  1
  Al  Al1  1  0.495130  0.335685  0.435688  1
  Al  Al2  1  0.931605  0.335619  0.564140  1
  Al  Al3  1  0.508545  0.665375  0.563446  1
  Cr  Cr4  1  0.894497  0.637266  0.709161  1
  Cr  Cr5  1  0.668170  0.350231  0.136098  1
  Cr  Cr6  1  0.398442  0.363508  0.708781  1
  Cr  Cr7  1  0.106976  0.363365  0.290684  1
  Cr  Cr8  1  0.330322  0.651184  0.863227  1
  Cr  Cr9  1  0.287245  0.000354  0.427712  1
  Cr  Cr10  1  0.192193  0.650834  0.136630  1
  Cr  Cr11  1  0.999126  0.000834  0.999496  1
  Cr  Cr12  1  0.426971  0.000420  0.144865  1
  Cr  Cr13  1  0.803430  0.350209  0.862767  1
  Cr  Cr14  1  0.601742  0.637334  0.290093  1
  Cr  Cr15  1  0.571441  0.000394  0.854390  1
  Cr  Cr16  1  0.714218  0.000603  0.571725  1
  Si  Si17  1  0.235645  0.321336  0.999664  1
  Si  Si18  1  0.762452  0.679688  0.999537  1
  Sb  Sb19  1  0.861517  0.000288  0.277927  1
  Sb  Sb20  1  0.138246  0.999480  0.721106  1
  O  O21  1  0.663029  0.393646  0.303412  1
  O  O22  1  0.171541  0.374600  0.450173  1
  O  O23  1  0.950288  0.336084  0.999286  1
  O  O24  1  0.353493  0.131381  0.999644  1
  O  O25  1  0.832140  0.625049  0.549328  1
  O  O26  1  0.340836  0.607318  0.695615  1
  O  O27  1  0.995764  0.121859  0.556861  1
  O  O28  1  0.006614  0.879079  0.444143  1
  O  O29  1  0.645099  0.869738  0.999664  1
  O  O30  1  0.147517  0.891812  0.137237  1
  O  O31  1  0.261835  0.401718  0.116478  1
  O  O32  1  0.035070  0.607108  0.303913  1
  O  O33  1  0.451554  0.878665  0.554535  1
  O  O34  1  0.713707  0.109400  0.137443  1
  O  O35  1  0.619083  0.599156  0.116069  1
  O  O36  1  0.048081  0.664799  0.999518  1
  O  O37  1  0.284781  0.891952  0.862700  1
  O  O38  1  0.851456  0.109264  0.861053  1
  O  O39  1  0.552176  0.122165  0.443698  1
  O  O40  1  0.188194  0.122434  0.282643  1
  O  O41  1  0.809724  0.878052  0.716905  1
  O  O42  1  0.379750  0.401887  0.883267  1
  O  O43  1  0.471289  0.122582  0.716617  1
  O  O44  1  0.622607  0.375151  0.549289  1
  O  O45  1  0.735687  0.599210  0.882884  1
  O  O46  1  0.526917  0.878122  0.282423  1
  O  O47  1  0.970463  0.393554  0.695881  1
  O  O48  1  0.381092  0.624909  0.450142  1
