# generated using pymatgen
data_ZnBiMoO5
_symmetry_space_group_name_H-M   'P 1'
_cell_length_a   5.39437369
_cell_length_b   8.05408605
_cell_length_c   11.92778701
_cell_angle_alpha   90.00000000
_cell_angle_beta   90.00000000
_cell_angle_gamma   104.66975515
_symmetry_Int_Tables_number   1
_chemical_formula_structural   ZnBiMoO5
_chemical_formula_sum   'Zn4 Bi4 Mo4 O20'
_cell_volume   501.33030398
_cell_formula_units_Z   4
loop_
 _symmetry_equiv_pos_site_id
 _symmetry_equiv_pos_as_xyz
  1  'x, y, z'
loop_
 _atom_site_type_symbol
 _atom_site_label
 _atom_site_symmetry_multiplicity
 _atom_site_fract_x
 _atom_site_fract_y
 _atom_site_fract_z
 _atom_site_occupancy
  Zn  Zn0  1  0.606485  0.163208  0.916058  1
  Zn  Zn1  1  0.393515  0.836792  0.083942  1
  Zn  Zn2  1  0.893515  0.336792  0.416058  1
  Zn  Zn3  1  0.106485  0.663208  0.583942  1
  Bi  Bi4  1  0.098194  0.159948  0.102977  1
  Bi  Bi5  1  0.901806  0.840052  0.897023  1
  Bi  Bi6  1  0.598194  0.659948  0.397023  1
  Bi  Bi7  1  0.401806  0.340052  0.602977  1
  Mo  Mo8  1  0.778196  0.969155  0.636254  1
  Mo  Mo9  1  0.221804  0.030845  0.363746  1
  Mo  Mo10  1  0.721804  0.530845  0.136254  1
  Mo  Mo11  1  0.278196  0.469155  0.863746  1
  O  O12  1  0.533992  0.331422  0.069292  1
  O  O13  1  0.000006  0.327183  0.931478  1
  O  O14  1  0.503432  0.666582  0.184901  1
  O  O15  1  0.756253  0.514239  0.524612  1
  O  O16  1  0.781296  0.486669  0.291397  1
  O  O17  1  0.281296  0.986669  0.208603  1
  O  O18  1  0.500006  0.827183  0.568522  1
  O  O19  1  0.499994  0.172817  0.431478  1
  O  O20  1  0.243747  0.485761  0.475388  1
  O  O21  1  0.966008  0.168578  0.569292  1
  O  O22  1  0.218704  0.513331  0.708603  1
  O  O23  1  0.466008  0.668578  0.930708  1
  O  O24  1  0.033992  0.831422  0.430708  1
  O  O25  1  0.718704  0.013331  0.791397  1
  O  O26  1  0.743747  0.985761  0.024612  1
  O  O27  1  0.256253  0.014239  0.975388  1
  O  O28  1  0.496568  0.333418  0.815099  1
  O  O29  1  -0.000006  0.672817  0.068522  1
  O  O30  1  0.996568  0.833418  0.684901  1
  O  O31  1  0.003432  0.166582  0.315099  1
