# generated using pymatgen
data_Ca2CoRhO6
_symmetry_space_group_name_H-M   'P 1'
_cell_length_a   6.30848796
_cell_length_b   6.48024967
_cell_length_c   6.48070019
_cell_angle_alpha   91.61646607
_cell_angle_beta   93.64020445
_cell_angle_gamma   93.76167203
_symmetry_Int_Tables_number   1
_chemical_formula_structural   Ca2CoRhO6
_chemical_formula_sum   'Ca4 Co2 Rh2 O12'
_cell_volume   263.69115118
_cell_formula_units_Z   2
loop_
 _symmetry_equiv_pos_site_id
 _symmetry_equiv_pos_as_xyz
  1  'x, y, z'
loop_
 _atom_site_type_symbol
 _atom_site_label
 _atom_site_symmetry_multiplicity
 _atom_site_fract_x
 _atom_site_fract_y
 _atom_site_fract_z
 _atom_site_occupancy
  Ca  Ca0  1  0.749357  0.379188  0.121186  1
  Ca  Ca1  1  0.121190  0.760545  0.379160  1
  Ca  Ca2  1  0.250753  0.616844  0.884407  1
  Ca  Ca3  1  0.380240  0.120029  0.739566  1
  Co  Co4  1  0.751365  0.755573  0.743026  1
  Co  Co5  1  0.249387  0.250463  0.250479  1
  Rh  Rh6  1  0.989324  0.998093  0.997009  1
  Rh  Rh7  1  0.510819  0.502377  0.503002  1
  O  O8  1  0.292189  0.981094  0.080878  1
  O  O9  1  0.801039  0.579220  0.459298  1
  O  O10  1  0.037708  0.886471  0.705260  1
  O  O11  1  0.094061  0.299130  0.987340  1
  O  O12  1  0.463971  0.793685  0.615547  1
  O  O13  1  0.406119  0.514735  0.202463  1
  O  O14  1  0.925105  0.695248  0.032698  1
  O  O15  1  0.207261  0.418415  0.518447  1
  O  O16  1  0.699876  0.042021  0.920481  1
  O  O17  1  0.998952  0.097983  0.291571  1
  O  O18  1  0.572958  0.463594  0.804943  1
  O  O19  1  0.500253  0.208157  0.400927  1
