# generated using pymatgen
data_CaTi2O4
_symmetry_space_group_name_H-M   'P 1'
_cell_length_a   6.45482470
_cell_length_b   6.08404005
_cell_length_c   6.08403988
_cell_angle_alpha   59.99999322
_cell_angle_beta   61.88267903
_cell_angle_gamma   61.88267857
_symmetry_Int_Tables_number   1
_chemical_formula_structural   CaTi2O4
_chemical_formula_sum   'Ca2 Ti4 O8'
_cell_volume   173.59729485
_cell_formula_units_Z   2
loop_
 _symmetry_equiv_pos_site_id
 _symmetry_equiv_pos_as_xyz
  1  'x, y, z'
loop_
 _atom_site_type_symbol
 _atom_site_label
 _atom_site_symmetry_multiplicity
 _atom_site_fract_x
 _atom_site_fract_y
 _atom_site_fract_z
 _atom_site_occupancy
  Ca  Ca0  1  0.011114  0.996296  0.996296  1
  Ca  Ca1  1  0.114826  0.628391  0.628391  1
  Ti  Ti2  1  0.266210  0.244597  0.244597  1
  Ti  Ti3  1  0.628478  0.134499  0.618511  1
  Ti  Ti4  1  0.628478  0.618511  0.134499  1
  Ti  Ti5  1  0.628478  0.618511  0.618511  1
  O  O6  1  0.392827  0.368685  0.368685  1
  O  O7  1  0.392827  0.368685  0.869802  1
  O  O8  1  0.392827  0.869802  0.368685  1
  O  O9  1  0.907686  0.364105  0.364105  1
  O  O10  1  0.426956  0.857681  0.857681  1
  O  O11  1  0.819764  0.423270  0.878483  1
  O  O12  1  0.819764  0.878483  0.423270  1
  O  O13  1  0.819764  0.878483  0.878483  1
