# generated using pymatgen
data_V(WO4)2
_symmetry_space_group_name_H-M   'P 1'
_cell_length_a   5.02613608
_cell_length_b   5.84204525
_cell_length_c   9.28924299
_cell_angle_alpha   90.00000000
_cell_angle_beta   92.11642776
_cell_angle_gamma   90.00000000
_symmetry_Int_Tables_number   1
_chemical_formula_structural   V(WO4)2
_chemical_formula_sum   'V2 W4 O16'
_cell_volume   272.57318340
_cell_formula_units_Z   2
loop_
 _symmetry_equiv_pos_site_id
 _symmetry_equiv_pos_as_xyz
  1  'x, y, z'
loop_
 _atom_site_type_symbol
 _atom_site_label
 _atom_site_symmetry_multiplicity
 _atom_site_fract_x
 _atom_site_fract_y
 _atom_site_fract_z
 _atom_site_occupancy
  V  V0  1  0.750000  0.356098  0.250000  1
  V  V1  1  0.250000  0.643901  0.750000  1
  W  W2  1  0.241393  0.164420  0.509273  1
  W  W3  1  0.258606  0.164420  0.990728  1
  W  W4  1  0.758607  0.835580  0.490727  1
  W  W5  1  0.741394  0.835580  0.009272  1
  O  O6  1  0.435901  0.333204  0.140794  1
  O  O7  1  0.064098  0.333204  0.359205  1
  O  O8  1  0.564099  0.666795  0.859206  1
  O  O9  1  0.935901  0.666795  0.640795  1
  O  O10  1  0.424437  0.889821  0.607907  1
  O  O11  1  0.075563  0.889821  0.892093  1
  O  O12  1  0.575563  0.110179  0.392093  1
  O  O13  1  0.924437  0.110179  0.107907  1
  O  O14  1  0.867519  0.597921  0.120211  1
  O  O15  1  0.632481  0.597921  0.379789  1
  O  O16  1  0.132481  0.402080  0.879789  1
  O  O17  1  0.367519  0.402080  0.620211  1
  O  O18  1  0.439145  0.889727  0.111417  1
  O  O19  1  0.560855  0.110274  0.888583  1
  O  O20  1  0.060856  0.889727  0.388584  1
  O  O21  1  0.939144  0.110274  0.611416  1
