# generated using pymatgen
data_Ba2Tl2Fe3O10
_symmetry_space_group_name_H-M   'P 1'
_cell_length_a   3.68724670
_cell_length_b   3.88829541
_cell_length_c   18.27076174
_cell_angle_alpha   90.08638489
_cell_angle_beta   90.26313141
_cell_angle_gamma   90.16314082
_symmetry_Int_Tables_number   1
_chemical_formula_structural   Ba2Tl2Fe3O10
_chemical_formula_sum   'Ba2 Tl2 Fe3 O10'
_cell_volume   261.94569119
_cell_formula_units_Z   1
loop_
 _symmetry_equiv_pos_site_id
 _symmetry_equiv_pos_as_xyz
  1  'x, y, z'
loop_
 _atom_site_type_symbol
 _atom_site_label
 _atom_site_symmetry_multiplicity
 _atom_site_fract_x
 _atom_site_fract_y
 _atom_site_fract_z
 _atom_site_occupancy
  Ba  Ba0  1  0.222719  0.203103  0.268678  1
  Ba  Ba1  1  0.776278  0.705813  0.728459  1
  Tl  Tl2  1  0.724812  0.699098  0.434980  1
  Tl  Tl3  1  0.240213  0.195192  0.563977  1
  Fe  Fe4  1  0.296852  0.207471  0.864955  1
  Fe  Fe5  1  0.728705  0.702342  0.133271  1
  Fe  Fe6  1  0.236220  0.708681  0.985169  1
  O  O7  1  0.296217  0.707738  0.869858  1
  O  O8  1  0.267949  0.205364  0.675232  1
  O  O9  1  0.792373  0.207127  0.819394  1
  O  O10  1  0.722671  0.727685  0.549313  1
  O  O11  1  0.735715  0.707712  0.028594  1
  O  O12  1  0.227650  0.702018  0.163678  1
  O  O13  1  0.712894  0.704284  0.324097  1
  O  O14  1  0.724837  0.202390  0.165525  1
  O  O15  1  0.210656  0.224564  0.450381  1
  O  O16  1  0.233708  0.208123  0.967493  1
