# generated using pymatgen
data_TiZn2WO6
_symmetry_space_group_name_H-M   'P 1'
_cell_length_a   5.25381705
_cell_length_b   5.23280301
_cell_length_c   7.66263144
_cell_angle_alpha   90.30748762
_cell_angle_beta   133.00414716
_cell_angle_gamma   119.93779873
_symmetry_Int_Tables_number   1
_chemical_formula_structural   TiZn2WO6
_chemical_formula_sum   'Ti1 Zn2 W1 O6'
_cell_volume   111.88210119
_cell_formula_units_Z   1
loop_
 _symmetry_equiv_pos_site_id
 _symmetry_equiv_pos_as_xyz
  1  'x, y, z'
loop_
 _atom_site_type_symbol
 _atom_site_label
 _atom_site_symmetry_multiplicity
 _atom_site_fract_x
 _atom_site_fract_y
 _atom_site_fract_z
 _atom_site_occupancy
  Ti  Ti0  1  0.003889  0.983967  0.503210  1
  Zn  Zn1  1  0.077345  0.519735  0.311791  1
  Zn  Zn2  1  0.134831  0.551527  0.847446  1
  W  W3  1  0.988210  0.975769  0.991832  1
  O  O4  1  0.942013  0.818837  0.222458  1
  O  O5  1  0.967729  0.095160  0.722898  1
  O  O6  1  0.347184  0.481041  0.231051  1
  O  O7  1  0.320289  0.824387  0.711435  1
  O  O8  1  0.612796  0.081844  0.228533  1
  O  O9  1  0.596163  0.462674  0.720999  1
