# generated using pymatgen
data_Mg(BiO2)4
_symmetry_space_group_name_H-M   'P 1'
_cell_length_a   3.43467439
_cell_length_b   9.72126009
_cell_length_c   7.00318436
_cell_angle_alpha   76.81973458
_cell_angle_beta   75.81275195
_cell_angle_gamma   79.81983570
_symmetry_Int_Tables_number   1
_chemical_formula_structural   Mg(BiO2)4
_chemical_formula_sum   'Mg1 Bi4 O8'
_cell_volume   218.91148206
_cell_formula_units_Z   1
loop_
 _symmetry_equiv_pos_site_id
 _symmetry_equiv_pos_as_xyz
  1  'x, y, z'
loop_
 _atom_site_type_symbol
 _atom_site_label
 _atom_site_symmetry_multiplicity
 _atom_site_fract_x
 _atom_site_fract_y
 _atom_site_fract_z
 _atom_site_occupancy
  Mg  Mg0  1  0.304372  0.203191  0.187811  1
  Bi  Bi1  1  0.628358  0.128438  0.614921  1
  Bi  Bi2  1  0.118003  0.537899  0.227249  1
  Bi  Bi3  1  0.876570  0.437330  0.809236  1
  Bi  Bi4  1  0.370181  0.823330  0.436874  1
  O  O5  1  0.879746  0.690665  0.550350  1
  O  O6  1  0.450873  0.232934  0.865147  1
  O  O7  1  0.558065  0.690224  0.194609  1
  O  O8  1  0.125615  0.264898  0.483662  1
  O  O9  1  0.155318  0.985384  0.704037  1
  O  O10  1  0.758472  0.352840  0.130052  1
  O  O11  1  0.803753  0.067885  0.324247  1
  O  O12  1  0.268156  0.561090  0.902450  1
