# generated using pymatgen
data_BaAlNi4O7
_symmetry_space_group_name_H-M   'P 1'
_cell_length_a   5.98661760
_cell_length_b   5.98608215
_cell_length_c   10.14526587
_cell_angle_alpha   90.00000000
_cell_angle_beta   90.00000000
_cell_angle_gamma   119.99117153
_symmetry_Int_Tables_number   1
_chemical_formula_structural   BaAlNi4O7
_chemical_formula_sum   'Ba2 Al2 Ni8 O14'
_cell_volume   314.88856094
_cell_formula_units_Z   2
loop_
 _symmetry_equiv_pos_site_id
 _symmetry_equiv_pos_as_xyz
  1  'x, y, z'
loop_
 _atom_site_type_symbol
 _atom_site_label
 _atom_site_symmetry_multiplicity
 _atom_site_fract_x
 _atom_site_fract_y
 _atom_site_fract_z
 _atom_site_occupancy
  Ba  Ba0  1  0.666693  0.333338  0.491003  1
  Ba  Ba1  1  0.333307  0.666662  0.991003  1
  Al  Al2  1  0.666683  0.333341  0.870066  1
  Al  Al3  1  0.333317  0.666659  0.370066  1
  Ni  Ni4  1  0.825797  0.174086  0.189792  1
  Ni  Ni5  1  0.651951  0.825923  0.689844  1
  Ni  Ni6  1  0.174159  0.348141  0.689844  1
  Ni  Ni7  1  0.825842  0.651859  0.189843  1
  Ni  Ni8  1  0.348048  0.174077  0.189843  1
  Ni  Ni9  1  0.174204  0.825914  0.689793  1
  Ni  Ni10  1  0.000060  0.000001  0.441752  1
  Ni  Ni11  1  0.999940  0.999999  0.941752  1
  O  O12  1  0.825003  0.174946  0.994210  1
  O  O13  1  0.650197  0.825076  0.494211  1
  O  O14  1  0.174981  0.349868  0.494207  1
  O  O15  1  0.825020  0.650132  0.994208  1
  O  O16  1  0.349802  0.174924  0.994212  1
  O  O17  1  0.174997  0.825054  0.494209  1
  O  O18  1  0.000075  0.999978  0.759104  1
  O  O19  1  0.999925  0.000022  0.259105  1
  O  O20  1  0.489638  0.510317  0.273337  1
  O  O21  1  0.979465  0.489707  0.773302  1
  O  O22  1  0.510375  0.020613  0.773324  1
  O  O23  1  0.489626  0.979387  0.273324  1
  O  O24  1  0.510364  0.489685  0.773337  1
  O  O25  1  0.020535  0.510295  0.273302  1
