# generated using pymatgen
data_ZnSn(PO3)4
_symmetry_space_group_name_H-M   'P 1'
_cell_length_a   7.60507833
_cell_length_b   7.59253032
_cell_length_c   10.47396317
_cell_angle_alpha   100.73048423
_cell_angle_beta   107.05558079
_cell_angle_gamma   109.74249225
_symmetry_Int_Tables_number   1
_chemical_formula_structural   ZnSn(PO3)4
_chemical_formula_sum   'Zn2 Sn2 P8 O24'
_cell_volume   516.13086609
_cell_formula_units_Z   2
loop_
 _symmetry_equiv_pos_site_id
 _symmetry_equiv_pos_as_xyz
  1  'x, y, z'
loop_
 _atom_site_type_symbol
 _atom_site_label
 _atom_site_symmetry_multiplicity
 _atom_site_fract_x
 _atom_site_fract_y
 _atom_site_fract_z
 _atom_site_occupancy
  Zn  Zn0  1  0.742702  0.992725  0.749875  1
  Zn  Zn1  1  0.255800  0.007874  0.249415  1
  Sn  Sn2  1  0.499672  0.499763  0.500458  1
  Sn  Sn3  1  0.500734  0.999509  0.001126  1
  P  P4  1  0.520390  0.315565  0.816842  1
  P  P5  1  0.001076  0.702052  0.684138  1
  P  P6  1  0.482690  0.682585  0.184246  1
  P  P7  1  0.999471  0.298299  0.315767  1
  P  P8  1  0.768680  0.728315  0.013417  1
  P  P9  1  0.216449  0.756067  0.487210  1
  P  P10  1  0.232896  0.270180  0.986870  1
  P  P11  1  0.785929  0.245792  0.513545  1
  O  O12  1  0.343185  0.289181  0.876069  1
  O  O13  1  0.920159  0.465709  0.625774  1
  O  O14  1  0.660628  0.708881  0.125499  1
  O  O15  1  0.085728  0.534930  0.376432  1
  O  O16  1  0.714600  0.501407  0.937651  1
  O  O17  1  0.065708  0.777127  0.563432  1
  O  O18  1  0.288168  0.497657  0.062372  1
  O  O19  1  0.935138  0.222725  0.436411  1
  O  O20  1  0.453880  0.353108  0.680269  1
  O  O21  1  0.174651  0.773962  0.821103  1
  O  O22  1  0.548371  0.642953  0.320101  1
  O  O23  1  0.824705  0.230300  0.179945  1
  O  O24  1  0.576569  0.141853  0.820160  1
  O  O25  1  0.822303  0.752116  0.680168  1
  O  O26  1  0.427776  0.857283  0.182318  1
  O  O27  1  0.175194  0.244615  0.317125  1
  O  O28  1  0.671077  0.814322  0.908712  1
  O  O29  1  0.407575  0.764534  0.592017  1
  O  O30  1  0.329306  0.184192  0.092275  1
  O  O31  1  0.596122  0.241135  0.409722  1
  O  O32  1  0.991247  0.825183  0.094564  1
  O  O33  1  0.230588  0.896533  0.404864  1
  O  O34  1  0.010647  0.173305  0.904448  1
  O  O35  1  0.769160  0.103491  0.594385  1
