# generated using pymatgen
data_Mg2Nb2SnO8
_symmetry_space_group_name_H-M   'P 1'
_cell_length_a   5.30827855
_cell_length_b   6.12181398
_cell_length_c   10.88090369
_cell_angle_alpha   106.33257783
_cell_angle_beta   91.01802779
_cell_angle_gamma   89.99737367
_symmetry_Int_Tables_number   1
_chemical_formula_structural   Mg2Nb2SnO8
_chemical_formula_sum   'Mg4 Nb4 Sn2 O16'
_cell_volume   339.26207695
_cell_formula_units_Z   2
loop_
 _symmetry_equiv_pos_site_id
 _symmetry_equiv_pos_as_xyz
  1  'x, y, z'
loop_
 _atom_site_type_symbol
 _atom_site_label
 _atom_site_symmetry_multiplicity
 _atom_site_fract_x
 _atom_site_fract_y
 _atom_site_fract_z
 _atom_site_occupancy
  Mg  Mg0  1  0.754059  0.411931  0.540875  1
  Mg  Mg1  1  0.744869  0.871962  0.460809  1
  Mg  Mg2  1  0.244842  0.590661  0.460722  1
  Mg  Mg3  1  0.254153  0.130730  0.541159  1
  Nb  Nb4  1  0.731799  0.300443  0.255814  1
  Nb  Nb5  1  0.766864  0.045106  0.745964  1
  Nb  Nb6  1  0.266771  0.702340  0.745802  1
  Nb  Nb7  1  0.231722  0.957522  0.255965  1
  Sn  Sn8  1  0.748236  0.695620  0.001222  1
  Sn  Sn9  1  0.248297  0.306319  0.000798  1
  O  O10  1  0.042637  0.172862  0.169166  1
  O  O11  1  0.455789  0.004419  0.832357  1
  O  O12  1  0.956153  0.830004  0.832547  1
  O  O13  1  0.542438  0.998416  0.169058  1
  O  O14  1  0.614364  0.447827  0.139056  1
  O  O15  1  0.884804  0.308684  0.863208  1
  O  O16  1  0.384684  0.555423  0.862723  1
  O  O17  1  0.113718  0.693582  0.139342  1
  O  O18  1  0.451075  0.305474  0.385882  1
  O  O19  1  0.047684  0.920167  0.615739  1
  O  O20  1  0.380023  0.844321  0.394330  1
  O  O21  1  0.118815  0.450601  0.607493  1
  O  O22  1  0.619048  0.158743  0.607624  1
  O  O23  1  0.879985  0.551985  0.394194  1
  O  O24  1  0.950961  0.082551  0.385982  1
  O  O25  1  0.547717  0.697194  0.615707  1
