# generated using pymatgen
data_BaMgTiF7
_symmetry_space_group_name_H-M   'P 1'
_cell_length_a   5.71290017
_cell_length_b   9.68460717
_cell_length_c   10.01736389
_cell_angle_alpha   90.00000000
_cell_angle_beta   90.00000000
_cell_angle_gamma   93.00952496
_symmetry_Int_Tables_number   1
_chemical_formula_structural   BaMgTiF7
_chemical_formula_sum   'Ba4 Mg4 Ti4 F28'
_cell_volume   553.46824849
_cell_formula_units_Z   4
loop_
 _symmetry_equiv_pos_site_id
 _symmetry_equiv_pos_as_xyz
  1  'x, y, z'
loop_
 _atom_site_type_symbol
 _atom_site_label
 _atom_site_symmetry_multiplicity
 _atom_site_fract_x
 _atom_site_fract_y
 _atom_site_fract_z
 _atom_site_occupancy
  Ba  Ba0  1  0.267700  0.499170  0.318449  1
  Ba  Ba1  1  0.732300  0.000830  0.818449  1
  Ba  Ba2  1  0.732300  0.500830  0.681551  1
  Ba  Ba3  1  0.267700  0.999170  0.181551  1
  Mg  Mg4  1  0.693183  0.809503  0.395112  1
  Mg  Mg5  1  0.306817  0.690497  0.895112  1
  Mg  Mg6  1  0.693183  0.309503  0.104888  1
  Mg  Mg7  1  0.306817  0.190497  0.604888  1
  Ti  Ti8  1  0.194101  0.811743  0.610328  1
  Ti  Ti9  1  0.805899  0.188257  0.389672  1
  Ti  Ti10  1  0.194101  0.311743  0.889672  1
  Ti  Ti11  1  0.805899  0.688257  0.110328  1
  F  F12  1  0.120617  0.125210  0.449159  1
  F  F13  1  0.374467  0.371885  0.054055  1
  F  F14  1  0.478500  0.749178  0.715265  1
  F  F15  1  0.521500  0.250822  0.284735  1
  F  F16  1  0.890985  0.367790  0.456189  1
  F  F17  1  0.258260  0.497351  0.810299  1
  F  F18  1  0.027401  0.750398  0.783660  1
  F  F19  1  0.109015  0.132210  0.956189  1
  F  F20  1  0.374467  0.871885  0.445945  1
  F  F21  1  0.521500  0.750822  0.215265  1
  F  F22  1  0.120617  0.625210  0.050841  1
  F  F23  1  0.879383  0.874790  0.550841  1
  F  F24  1  0.972599  0.749602  0.283660  1
  F  F25  1  0.387870  0.874863  0.958743  1
  F  F26  1  0.109015  0.632210  0.543811  1
  F  F27  1  0.890985  0.867790  0.043811  1
  F  F28  1  0.972599  0.249602  0.216340  1
  F  F29  1  0.879383  0.374790  0.949159  1
  F  F30  1  0.612130  0.625137  0.458743  1
  F  F31  1  0.625533  0.628115  0.945945  1
  F  F32  1  0.612130  0.125137  0.041257  1
  F  F33  1  0.027401  0.250398  0.716340  1
  F  F34  1  0.387870  0.374863  0.541257  1
  F  F35  1  0.741740  0.002649  0.310299  1
  F  F36  1  0.741740  0.502649  0.189701  1
  F  F37  1  0.258260  0.997351  0.689701  1
  F  F38  1  0.625533  0.128115  0.554055  1
  F  F39  1  0.478500  0.249178  0.784735  1
