# generated using pymatgen
data_CaAgBiO5
_symmetry_space_group_name_H-M   'P 1'
_cell_length_a   5.88474279
_cell_length_b   9.14270426
_cell_length_c   11.07219627
_cell_angle_alpha   90.00000000
_cell_angle_beta   90.00000000
_cell_angle_gamma   110.62074132
_symmetry_Int_Tables_number   1
_chemical_formula_structural   CaAgBiO5
_chemical_formula_sum   'Ca4 Ag4 Bi4 O20'
_cell_volume   557.54545366
_cell_formula_units_Z   4
loop_
 _symmetry_equiv_pos_site_id
 _symmetry_equiv_pos_as_xyz
  1  'x, y, z'
loop_
 _atom_site_type_symbol
 _atom_site_label
 _atom_site_symmetry_multiplicity
 _atom_site_fract_x
 _atom_site_fract_y
 _atom_site_fract_z
 _atom_site_occupancy
  Ca  Ca0  1  0.638027  0.159051  0.893521  1
  Ca  Ca1  1  0.361973  0.840949  0.106479  1
  Ca  Ca2  1  0.861973  0.340949  0.393521  1
  Ca  Ca3  1  0.138027  0.659051  0.606479  1
  Ag  Ag4  1  0.825935  0.885533  0.628644  1
  Ag  Ag5  1  0.174065  0.114467  0.371356  1
  Ag  Ag6  1  0.674065  0.614467  0.128644  1
  Ag  Ag7  1  0.325935  0.385533  0.871356  1
  Bi  Bi8  1  0.120836  0.160794  0.088256  1
  Bi  Bi9  1  0.879164  0.839206  0.911744  1
  Bi  Bi10  1  0.620836  0.660794  0.411744  1
  Bi  Bi11  1  0.379164  0.339206  0.588256  1
  O  O12  1  0.467161  0.320271  0.020216  1
  O  O13  1  0.013080  0.316981  0.976652  1
  O  O14  1  0.461723  0.690993  0.244837  1
  O  O15  1  0.730091  0.506263  0.535631  1
  O  O16  1  0.784864  0.547270  0.286006  1
  O  O17  1  0.284864  0.047270  0.213994  1
  O  O18  1  0.513080  0.816981  0.523348  1
  O  O19  1  0.486920  0.183019  0.476652  1
  O  O20  1  0.269909  0.493737  0.464369  1
  O  O21  1  0.032839  0.179729  0.520216  1
  O  O22  1  0.215136  0.452730  0.713994  1
  O  O23  1  0.532839  0.679729  0.979784  1
  O  O24  1  0.967161  0.820271  0.479784  1
  O  O25  1  0.715136  0.952730  0.786006  1
  O  O26  1  0.769909  0.993737  0.035631  1
  O  O27  1  0.230091  0.006263  0.964369  1
  O  O28  1  0.538277  0.309007  0.755163  1
  O  O29  1  0.986920  0.683019  0.023348  1
  O  O30  1  0.038277  0.809007  0.744837  1
  O  O31  1  0.961723  0.190993  0.255163  1
