# generated using pymatgen
data_LaMgCrCoO6
_symmetry_space_group_name_H-M   'P 1'
_cell_length_a   5.31050376
_cell_length_b   5.37555741
_cell_length_c   7.78594774
_cell_angle_alpha   90.00000000
_cell_angle_beta   89.58008825
_cell_angle_gamma   90.00000000
_symmetry_Int_Tables_number   1
_chemical_formula_structural   LaMgCrCoO6
_chemical_formula_sum   'La2 Mg2 Cr2 Co2 O12'
_cell_volume   222.25884103
_cell_formula_units_Z   2
loop_
 _symmetry_equiv_pos_site_id
 _symmetry_equiv_pos_as_xyz
  1  'x, y, z'
loop_
 _atom_site_type_symbol
 _atom_site_label
 _atom_site_symmetry_multiplicity
 _atom_site_fract_x
 _atom_site_fract_y
 _atom_site_fract_z
 _atom_site_occupancy
  La  La0  1  0.998928  0.966968  0.752944  1
  La  La1  1  0.498928  0.533032  0.252944  1
  Mg  Mg2  1  0.480457  0.445224  0.755332  1
  Mg  Mg3  1  0.980457  0.054776  0.255332  1
  Cr  Cr4  1  0.488752  0.006093  0.501673  1
  Cr  Cr5  1  0.988752  0.493907  0.001673  1
  Co  Co6  1  0.489901  0.995238  0.998855  1
  Co  Co7  1  0.989901  0.504762  0.498855  1
  O  O8  1  0.073893  0.444221  0.245186  1
  O  O9  1  0.224055  0.240493  0.942623  1
  O  O10  1  0.225096  0.225290  0.545721  1
  O  O11  1  0.316037  0.701182  0.944489  1
  O  O12  1  0.329838  0.700291  0.559149  1
  O  O13  1  0.373043  0.977940  0.254025  1
  O  O14  1  0.573893  0.055779  0.745186  1
  O  O15  1  0.724055  0.259507  0.442623  1
  O  O16  1  0.725096  0.274710  0.045721  1
  O  O17  1  0.816037  0.798818  0.444489  1
  O  O18  1  0.829838  0.799709  0.059149  1
  O  O19  1  0.873043  0.522060  0.754025  1
