# generated using pymatgen
data_BaAlCuSnO5
_symmetry_space_group_name_H-M   'P 1'
_cell_length_a   3.82939837
_cell_length_b   3.82937183
_cell_length_c   8.58637849
_cell_angle_alpha   89.99758282
_cell_angle_beta   89.96404927
_cell_angle_gamma   90.00098099
_symmetry_Int_Tables_number   1
_chemical_formula_structural   BaAlCuSnO5
_chemical_formula_sum   'Ba1 Al1 Cu1 Sn1 O5'
_cell_volume   125.91226267
_cell_formula_units_Z   1
loop_
 _symmetry_equiv_pos_site_id
 _symmetry_equiv_pos_as_xyz
  1  'x, y, z'
loop_
 _atom_site_type_symbol
 _atom_site_label
 _atom_site_symmetry_multiplicity
 _atom_site_fract_x
 _atom_site_fract_y
 _atom_site_fract_z
 _atom_site_occupancy
  Ba  Ba0  1  0.999941  0.999985  0.047685  1
  Al  Al1  1  0.000819  0.000330  0.440328  1
  Cu  Cu2  1  0.499972  0.500004  0.287139  1
  Sn  Sn3  1  0.500010  0.499992  0.694105  1
  O  O4  1  0.000087  0.499858  0.593082  1
  O  O5  1  0.499911  0.999980  0.593076  1
  O  O6  1  0.999905  0.499855  0.300395  1
  O  O7  1  0.499390  0.999992  0.300387  1
  O  O8  1  0.499962  0.499997  0.931721  1
