# generated using pymatgen
data_AlSbO3
_symmetry_space_group_name_H-M   'P 1'
_cell_length_a   5.67946401
_cell_length_b   5.67946376
_cell_length_c   13.10194941
_cell_angle_alpha   90.00000000
_cell_angle_beta   90.00000000
_cell_angle_gamma   120.00000152
_symmetry_Int_Tables_number   1
_chemical_formula_structural   AlSbO3
_chemical_formula_sum   'Al6 Sb6 O18'
_cell_volume   366.00011992
_cell_formula_units_Z   6
loop_
 _symmetry_equiv_pos_site_id
 _symmetry_equiv_pos_as_xyz
  1  'x, y, z'
loop_
 _atom_site_type_symbol
 _atom_site_label
 _atom_site_symmetry_multiplicity
 _atom_site_fract_x
 _atom_site_fract_y
 _atom_site_fract_z
 _atom_site_occupancy
  Al  Al0  1  0.666667  0.333333  0.266094  1
  Al  Al1  1  0.333333  0.666667  0.766094  1
  Al  Al2  1  0.666667  0.333333  0.766094  1
  Al  Al3  1  0.333333  0.666667  0.266094  1
  Al  Al4  1  0.000000  0.000000  0.729902  1
  Al  Al5  1  0.000000  0.000000  0.229902  1
  Sb  Sb6  1  0.703232  0.000000  0.483946  1
  Sb  Sb7  1  0.703232  0.703232  0.983946  1
  Sb  Sb8  1  0.000000  0.296768  0.983946  1
  Sb  Sb9  1  1.000000  0.703232  0.483946  1
  Sb  Sb10  1  0.296768  0.296768  0.483946  1
  Sb  Sb11  1  0.296768  0.000000  0.983946  1
  O  O12  1  0.666667  0.333333  0.027141  1
  O  O13  1  0.333333  0.666667  0.527141  1
  O  O14  1  0.666667  0.333333  0.527141  1
  O  O15  1  0.333333  0.666667  0.027141  1
  O  O16  1  0.000000  0.000000  0.864289  1
  O  O17  1  0.000000  0.000000  0.364289  1
  O  O18  1  0.473460  0.000000  0.851790  1
  O  O19  1  0.473460  0.473460  0.351790  1
  O  O20  1  0.000000  0.526540  0.351790  1
  O  O21  1  1.000000  0.473460  0.851790  1
  O  O22  1  0.526540  0.526540  0.851790  1
  O  O23  1  0.526540  0.000000  0.351790  1
  O  O24  1  0.315612  0.000000  0.195710  1
  O  O25  1  0.315612  0.315612  0.695710  1
  O  O26  1  0.000000  0.684388  0.695710  1
  O  O27  1  1.000000  0.315612  0.195710  1
  O  O28  1  0.684388  0.684388  0.195710  1
  O  O29  1  0.684388  0.000000  0.695710  1
