# generated using pymatgen
data_Zn3Si4(SbO7)2
_symmetry_space_group_name_H-M   'P 1'
_cell_length_a   8.38773554
_cell_length_b   10.07473013
_cell_length_c   9.39850520
_cell_angle_alpha   65.94124739
_cell_angle_beta   63.49812399
_cell_angle_gamma   65.40030363
_symmetry_Int_Tables_number   1
_chemical_formula_structural   Zn3Si4(SbO7)2
_chemical_formula_sum   'Zn6 Si8 Sb4 O28'
_cell_volume   621.74838332
_cell_formula_units_Z   2
loop_
 _symmetry_equiv_pos_site_id
 _symmetry_equiv_pos_as_xyz
  1  'x, y, z'
loop_
 _atom_site_type_symbol
 _atom_site_label
 _atom_site_symmetry_multiplicity
 _atom_site_fract_x
 _atom_site_fract_y
 _atom_site_fract_z
 _atom_site_occupancy
  Zn  Zn0  1  0.985378  0.891697  0.432709  1
  Zn  Zn1  1  0.309784  0.608303  0.067291  1
  Zn  Zn2  1  0.690216  0.391697  0.932709  1
  Zn  Zn3  1  0.580500  0.250000  0.750000  1
  Zn  Zn4  1  0.014622  0.108303  0.567291  1
  Zn  Zn5  1  0.419500  0.750000  0.250000  1
  Si  Si6  1  0.477503  0.287502  0.323952  1
  Si  Si7  1  0.911043  0.787502  0.823952  1
  Si  Si8  1  0.508344  0.886638  0.871780  1
  Si  Si9  1  0.733239  0.386638  0.371780  1
  Si  Si10  1  0.088957  0.212498  0.176048  1
  Si  Si11  1  0.491656  0.113362  0.128220  1
  Si  Si12  1  0.266761  0.613362  0.628220  1
  Si  Si13  1  0.522497  0.712498  0.676048  1
  Sb  Sb14  1  0.203393  0.250000  0.750000  1
  Sb  Sb15  1  0.796607  0.750000  0.250000  1
  Sb  Sb16  1  0.000000  0.000000  0.000000  1
  Sb  Sb17  1  0.000000  0.500000  0.500000  1
  O  O18  1  0.202484  0.682885  0.457127  1
  O  O19  1  0.063429  0.600766  0.233788  1
  O  O20  1  0.506771  0.936636  0.170006  1
  O  O21  1  0.102017  0.100766  0.733788  1
  O  O22  1  0.729657  0.678575  0.534857  1
  O  O23  1  0.930802  0.368785  0.215679  1
  O  O24  1  0.386587  0.436636  0.670006  1
  O  O25  1  0.943089  0.821425  0.965143  1
  O  O26  1  0.069198  0.631215  0.784321  1
  O  O27  1  0.366715  0.737848  0.599836  1
  O  O28  1  0.936571  0.399234  0.766212  1
  O  O29  1  0.270343  0.321425  0.465143  1
  O  O30  1  0.515267  0.131215  0.284321  1
  O  O31  1  0.657503  0.182885  0.957127  1
  O  O32  1  0.295602  0.237848  0.099836  1
  O  O33  1  0.056911  0.178575  0.034857  1
  O  O34  1  0.076728  0.075437  0.347614  1
  O  O35  1  0.633285  0.262152  0.400164  1
  O  O36  1  0.499778  0.424563  0.152386  1
  O  O37  1  0.704398  0.762152  0.900164  1
  O  O38  1  0.484733  0.868785  0.715679  1
  O  O39  1  0.897983  0.899234  0.266212  1
  O  O40  1  0.500222  0.575437  0.847614  1
  O  O41  1  0.493229  0.063364  0.829994  1
  O  O42  1  0.923272  0.924563  0.652386  1
  O  O43  1  0.613413  0.563364  0.329994  1
  O  O44  1  0.342497  0.817115  0.042873  1
  O  O45  1  0.797516  0.317115  0.542873  1
