# generated using pymatgen
data_Ge2WO6
_symmetry_space_group_name_H-M   'P 1'
_cell_length_a   5.71240422
_cell_length_b   9.27212397
_cell_length_c   9.87536123
_cell_angle_alpha   90.00000000
_cell_angle_beta   103.48476620
_cell_angle_gamma   90.00000000
_symmetry_Int_Tables_number   1
_chemical_formula_structural   Ge2WO6
_chemical_formula_sum   'Ge8 W4 O24'
_cell_volume   508.63983863
_cell_formula_units_Z   4
loop_
 _symmetry_equiv_pos_site_id
 _symmetry_equiv_pos_as_xyz
  1  'x, y, z'
loop_
 _atom_site_type_symbol
 _atom_site_label
 _atom_site_symmetry_multiplicity
 _atom_site_fract_x
 _atom_site_fract_y
 _atom_site_fract_z
 _atom_site_occupancy
  Ge  Ge0  1  0.820937  0.333321  0.058105  1
  Ge  Ge1  1  0.679063  0.833321  0.941895  1
  Ge  Ge2  1  0.179063  0.666679  0.941895  1
  Ge  Ge3  1  0.320937  0.166679  0.058105  1
  Ge  Ge4  1  0.190422  0.334895  0.450365  1
  Ge  Ge5  1  0.309578  0.834895  0.549635  1
  Ge  Ge6  1  0.809578  0.665105  0.549635  1
  Ge  Ge7  1  0.690422  0.165105  0.450365  1
  W  W8  1  -0.000687  0.649878  0.248248  1
  W  W9  1  0.500687  0.149878  0.751752  1
  W  W10  1  0.000687  0.350122  0.751752  1
  W  W11  1  0.499313  0.850122  0.248248  1
  O  O12  1  0.415655  0.252750  0.383311  1
  O  O13  1  0.084345  0.752750  0.616689  1
  O  O14  1  0.584345  0.747250  0.616689  1
  O  O15  1  0.915655  0.247250  0.383311  1
  O  O16  1  0.127492  0.287318  0.115893  1
  O  O17  1  0.372508  0.787318  0.884107  1
  O  O18  1  0.872508  0.712682  0.884108  1
  O  O19  1  0.627492  0.212682  0.115892  1
  O  O20  1  0.663093  0.985552  0.396329  1
  O  O21  1  0.836907  0.485552  0.603671  1
  O  O22  1  0.336907  0.014448  0.603671  1
  O  O23  1  0.163093  0.514448  0.396329  1
  O  O24  1  0.292241  0.992465  0.114301  1
  O  O25  1  0.207759  0.492465  0.885699  1
  O  O26  1  0.707759  0.007535  0.885699  1
  O  O27  1  0.792241  0.507535  0.114301  1
  O  O28  1  0.750343  0.311614  0.867864  1
  O  O29  1  0.749657  0.811614  0.132136  1
  O  O30  1  0.249657  0.688386  0.132136  1
  O  O31  1  0.250343  0.188386  0.867864  1
  O  O32  1  0.266806  0.317643  0.637881  1
  O  O33  1  0.233194  0.817643  0.362119  1
  O  O34  1  0.733194  0.682357  0.362119  1
  O  O35  1  0.766806  0.182357  0.637881  1
