# generated using pymatgen
data_Sb4O9
_symmetry_space_group_name_H-M   'P 1'
_cell_length_a   3.88778607
_cell_length_b   9.90848388
_cell_length_c   10.03966676
_cell_angle_alpha   90.34654936
_cell_angle_beta   90.03300212
_cell_angle_gamma   90.02563332
_symmetry_Int_Tables_number   1
_chemical_formula_structural   Sb4O9
_chemical_formula_sum   'Sb8 O18'
_cell_volume   386.74152395
_cell_formula_units_Z   2
loop_
 _symmetry_equiv_pos_site_id
 _symmetry_equiv_pos_as_xyz
  1  'x, y, z'
loop_
 _atom_site_type_symbol
 _atom_site_label
 _atom_site_symmetry_multiplicity
 _atom_site_fract_x
 _atom_site_fract_y
 _atom_site_fract_z
 _atom_site_occupancy
  Sb  Sb0  1  0.502659  0.529220  0.336713  1
  Sb  Sb1  1  0.495879  0.841070  0.488071  1
  Sb  Sb2  1  0.500963  0.336316  0.971920  1
  Sb  Sb3  1  0.498746  0.037522  0.841511  1
  Sb  Sb4  1  0.501459  0.961415  0.159467  1
  Sb  Sb5  1  0.503842  0.161634  0.512765  1
  Sb  Sb6  1  0.497238  0.473374  0.660588  1
  Sb  Sb7  1  0.499140  0.662877  0.027113  1
  O  O8  1  0.500462  0.757297  0.210604  1
  O  O9  1  0.499680  0.239655  0.790134  1
  O  O10  1  0.999241  0.673688  0.003563  1
  O  O11  1  0.997428  0.466651  0.679102  1
  O  O12  1  0.998873  0.011326  0.826463  1
  O  O13  1  0.996129  0.825336  0.468901  1
  O  O14  1  0.000852  0.325929  0.996285  1
  O  O15  1  0.002450  0.533203  0.320391  1
  O  O16  1  0.001310  0.985703  0.175045  1
  O  O17  1  0.003632  0.175894  0.531892  1
  O  O18  1  0.500459  0.020460  0.362187  1
  O  O19  1  0.500594  0.127967  0.029315  1
  O  O20  1  0.501604  0.371688  0.468191  1
  O  O21  1  0.501062  0.478814  0.128221  1
  O  O22  1  0.498941  0.521044  0.871987  1
  O  O23  1  0.499544  0.870643  0.971713  1
  O  O24  1  0.498264  0.630381  0.528976  1
  O  O25  1  0.499550  0.980890  0.638880  1
