# generated using pymatgen
data_Y2(NiO3)3
_symmetry_space_group_name_H-M   'P 1'
_cell_length_a   5.17362058
_cell_length_b   15.98554514
_cell_length_c   7.48197750
_cell_angle_alpha   90.00000000
_cell_angle_beta   90.00793065
_cell_angle_gamma   90.00000000
_symmetry_Int_Tables_number   1
_chemical_formula_structural   Y2(NiO3)3
_chemical_formula_sum   'Y8 Ni12 O36'
_cell_volume   618.78306724
_cell_formula_units_Z   4
loop_
 _symmetry_equiv_pos_site_id
 _symmetry_equiv_pos_as_xyz
  1  'x, y, z'
loop_
 _atom_site_type_symbol
 _atom_site_label
 _atom_site_symmetry_multiplicity
 _atom_site_fract_x
 _atom_site_fract_y
 _atom_site_fract_z
 _atom_site_occupancy
  Y  Y0  1  0.484165  0.485515  0.749986  1
  Y  Y1  1  0.480718  0.811492  0.749999  1
  Y  Y2  1  0.019282  0.311492  0.750001  1
  Y  Y3  1  0.015835  0.985515  0.750014  1
  Y  Y4  1  0.519282  0.188508  0.250001  1
  Y  Y5  1  0.515835  0.514485  0.250014  1
  Y  Y6  1  0.984165  0.014485  0.249986  1
  Y  Y7  1  0.980718  0.688508  0.249999  1
  Ni  Ni8  1  0.002365  0.165596  0.997907  1
  Ni  Ni9  1  0.000000  0.500000  0.000000  1
  Ni  Ni10  1  0.997635  0.834404  0.002093  1
  Ni  Ni11  1  0.500000  0.000000  0.500000  1
  Ni  Ni12  1  0.502365  0.334404  0.497907  1
  Ni  Ni13  1  0.497635  0.665596  0.502093  1
  Ni  Ni14  1  0.002432  0.165570  0.502123  1
  Ni  Ni15  1  0.000000  0.500000  0.500000  1
  Ni  Ni16  1  0.997568  0.834430  0.497877  1
  Ni  Ni17  1  0.500000  0.000000  0.000000  1
  Ni  Ni18  1  0.502432  0.334430  0.002122  1
  Ni  Ni19  1  0.497568  0.665570  0.997877  1
  O  O20  1  0.710023  0.095203  0.437578  1
  O  O21  1  0.686307  0.437111  0.474141  1
  O  O22  1  0.696593  0.765408  0.453033  1
  O  O23  1  0.803407  0.265408  0.046967  1
  O  O24  1  0.789977  0.595203  0.062422  1
  O  O25  1  0.813693  0.937111  0.025859  1
  O  O26  1  0.303407  0.234592  0.546967  1
  O  O27  1  0.313693  0.562889  0.525859  1
  O  O28  1  0.289977  0.904797  0.562422  1
  O  O29  1  0.186307  0.062889  0.974141  1
  O  O30  1  0.210023  0.404797  0.937578  1
  O  O31  1  0.196593  0.734592  0.953033  1
  O  O32  1  0.186328  0.062855  0.525873  1
  O  O33  1  0.210031  0.404795  0.562442  1
  O  O34  1  0.196627  0.734623  0.546815  1
  O  O35  1  0.303373  0.234623  0.953185  1
  O  O36  1  0.313672  0.562855  0.974127  1
  O  O37  1  0.289969  0.904795  0.937558  1
  O  O38  1  0.803373  0.265377  0.453185  1
  O  O39  1  0.789969  0.595205  0.437558  1
  O  O40  1  0.813672  0.937145  0.474127  1
  O  O41  1  0.710031  0.095205  0.062442  1
  O  O42  1  0.686328  0.437145  0.025873  1
  O  O43  1  0.696627  0.765377  0.046815  1
  O  O44  1  0.095257  0.157791  0.250047  1
  O  O45  1  0.076569  0.496212  0.249992  1
  O  O46  1  0.097340  0.829096  0.249983  1
  O  O47  1  0.402660  0.329096  0.250017  1
  O  O48  1  0.404743  0.657791  0.249953  1
  O  O49  1  0.423431  0.996212  0.250008  1
  O  O50  1  0.902660  0.170904  0.750017  1
  O  O51  1  0.923431  0.503788  0.750008  1
  O  O52  1  0.904743  0.842209  0.749953  1
  O  O53  1  0.576569  0.003788  0.749992  1
  O  O54  1  0.595257  0.342209  0.750047  1
  O  O55  1  0.597340  0.670904  0.749983  1
