# generated using pymatgen
data_Ba2YW2F11
_symmetry_space_group_name_H-M   'P 1'
_cell_length_a   7.88211733
_cell_length_b   7.88211637
_cell_length_c   15.15862728
_cell_angle_alpha   90.00000000
_cell_angle_beta   90.00000000
_cell_angle_gamma   119.99999618
_symmetry_Int_Tables_number   1
_chemical_formula_structural   Ba2YW2F11
_chemical_formula_sum   'Ba6 Y3 W6 F33'
_cell_volume   815.59820410
_cell_formula_units_Z   3
loop_
 _symmetry_equiv_pos_site_id
 _symmetry_equiv_pos_as_xyz
  1  'x, y, z'
loop_
 _atom_site_type_symbol
 _atom_site_label
 _atom_site_symmetry_multiplicity
 _atom_site_fract_x
 _atom_site_fract_y
 _atom_site_fract_z
 _atom_site_occupancy
  Ba  Ba0  1  0.540702  0.252548  0.675626  1
  Ba  Ba1  1  0.162078  0.527797  0.802202  1
  Ba  Ba2  1  0.711846  0.459298  0.008959  1
  Ba  Ba3  1  0.472203  0.634280  0.468868  1
  Ba  Ba4  1  0.365720  0.837921  0.135535  1
  Ba  Ba5  1  0.747452  0.288154  0.342292  1
  Y  Y6  1  0.204538  0.034442  0.885927  1
  Y  Y7  1  0.829905  0.795462  0.219260  1
  Y  Y8  1  0.965558  0.170095  0.552593  1
  W  W9  1  0.675021  0.968214  0.897860  1
  W  W10  1  0.769884  0.826085  0.733925  1
  W  W11  1  0.173915  0.943798  0.400591  1
  W  W12  1  0.293193  0.324979  0.231193  1
  W  W13  1  0.056202  0.230116  0.067258  1
  W  W14  1  0.031786  0.706807  0.564526  1
  F  F15  1  0.755154  0.156058  0.070943  1
  F  F16  1  0.460343  0.691390  0.926201  1
  F  F17  1  0.400903  0.244846  0.404276  1
  F  F18  1  0.080002  0.409707  0.453880  1
  F  F19  1  0.495698  0.239170  0.191510  1
  F  F20  1  0.891408  0.578708  0.165363  1
  F  F21  1  0.590293  0.670295  0.120547  1
  F  F22  1  0.421292  0.312699  0.832030  1
  F  F23  1  0.743470  0.504302  0.524843  1
  F  F24  1  0.314951  0.256602  0.007668  1
  F  F25  1  0.329705  0.919998  0.787214  1
  F  F26  1  0.843942  0.599097  0.737610  1
  F  F27  1  0.418488  0.001076  0.970264  1
  F  F28  1  0.108233  0.511836  0.035185  1
  F  F29  1  0.582587  0.581512  0.303597  1
  F  F30  1  0.308610  0.768953  0.592867  1
  F  F31  1  0.994778  0.155641  0.916082  1
  F  F32  1  0.941651  0.685049  0.341001  1
  F  F33  1  0.942470  0.012443  0.416203  1
  F  F34  1  0.998924  0.417413  0.636930  1
  F  F35  1  0.069974  0.057530  0.749537  1
  F  F36  1  0.488164  0.596399  0.701852  1
  F  F37  1  0.403601  0.891767  0.368518  1
  F  F38  1  0.160863  0.005222  0.249415  1
  F  F39  1  0.743398  0.058349  0.674335  1
  F  F40  1  0.760830  0.256530  0.858177  1
  F  F41  1  0.231047  0.539657  0.259534  1
  F  F42  1  0.010929  0.719996  0.909131  1
  F  F43  1  0.709067  0.989071  0.242464  1
  F  F44  1  0.987557  0.930026  0.082870  1
  F  F45  1  0.687301  0.108592  0.498696  1
  F  F46  1  0.844359  0.839137  0.582748  1
  F  F47  1  0.280004  0.290933  0.575797  1
