# generated using pymatgen
data_Sr2AlCu2MoO7
_symmetry_space_group_name_H-M   'P 1'
_cell_length_a   5.40799756
_cell_length_b   5.45738141
_cell_length_c   12.46218350
_cell_angle_alpha   102.88848927
_cell_angle_beta   102.75717198
_cell_angle_gamma   89.02607109
_symmetry_Int_Tables_number   1
_chemical_formula_structural   Sr2AlCu2MoO7
_chemical_formula_sum   'Sr4 Al2 Cu4 Mo2 O14'
_cell_volume   349.48439820
_cell_formula_units_Z   2
loop_
 _symmetry_equiv_pos_site_id
 _symmetry_equiv_pos_as_xyz
  1  'x, y, z'
loop_
 _atom_site_type_symbol
 _atom_site_label
 _atom_site_symmetry_multiplicity
 _atom_site_fract_x
 _atom_site_fract_y
 _atom_site_fract_z
 _atom_site_occupancy
  Sr  Sr0  1  0.342922  0.343014  0.720549  1
  Sr  Sr1  1  0.621211  0.661989  0.282039  1
  Sr  Sr2  1  0.840198  0.879820  0.718589  1
  Sr  Sr3  1  0.123123  0.122983  0.280290  1
  Al  Al4  1  0.981695  0.995413  0.000183  1
  Al  Al5  1  0.478173  0.496267  0.000292  1
  Cu  Cu6  1  0.923230  0.445326  0.891700  1
  Cu  Cu7  1  0.032615  0.551444  0.110479  1
  Cu  Cu8  1  0.423305  0.939680  0.889898  1
  Cu  Cu9  1  0.533218  0.056549  0.108909  1
  Mo  Mo10  1  0.247663  0.673845  0.500480  1
  Mo  Mo11  1  0.750382  0.336081  0.500197  1
  O  O12  1  0.133774  0.323225  0.500910  1
  O  O13  1  0.738932  0.689227  0.500070  1
  O  O14  1  0.247762  0.268569  0.895276  1
  O  O15  1  0.350851  0.731540  0.103668  1
  O  O16  1  0.747634  0.124086  0.897094  1
  O  O17  1  0.855131  0.875164  0.105524  1
  O  O18  1  0.597920  0.616433  0.894077  1
  O  O19  1  0.705684  0.379870  0.109703  1
  O  O20  1  0.097530  0.767644  0.890344  1
  O  O21  1  0.204696  0.226336  0.107010  1
  O  O22  1  0.330868  0.860032  0.660366  1
  O  O23  1  0.630298  0.143464  0.345024  1
  O  O24  1  0.784327  0.299375  0.655196  1
  O  O25  1  0.170046  0.701037  0.340729  1
