# generated using pymatgen
data_MgCr4O8
_symmetry_space_group_name_H-M   'P 1'
_cell_length_a   6.04452742
_cell_length_b   6.04452778
_cell_length_c   6.04452761
_cell_angle_alpha   58.44279118
_cell_angle_beta   58.44278741
_cell_angle_gamma   58.44279441
_symmetry_Int_Tables_number   1
_chemical_formula_structural   MgCr4O8
_chemical_formula_sum   'Mg1 Cr4 O8'
_cell_volume   150.59620588
_cell_formula_units_Z   1
loop_
 _symmetry_equiv_pos_site_id
 _symmetry_equiv_pos_as_xyz
  1  'x, y, z'
loop_
 _atom_site_type_symbol
 _atom_site_label
 _atom_site_symmetry_multiplicity
 _atom_site_fract_x
 _atom_site_fract_y
 _atom_site_fract_z
 _atom_site_occupancy
  Mg  Mg0  1  0.500000  0.500001  0.499999  1
  Cr  Cr1  1  0.500001  0.999999  0.500001  1
  Cr  Cr2  1  0.999999  0.500000  0.500001  1
  Cr  Cr3  1  0.500000  0.500000  -0.000000  1
  Cr  Cr4  1  0.000000  -0.000000  -0.000000  1
  O  O5  1  0.757262  0.275253  0.757262  1
  O  O6  1  0.242737  0.242738  0.724747  1
  O  O7  1  0.242737  0.724748  0.242737  1
  O  O8  1  0.724746  0.242738  0.242738  1
  O  O9  1  0.271262  0.271263  0.271262  1
  O  O10  1  0.728738  0.728738  0.728738  1
  O  O11  1  0.275254  0.757263  0.757262  1
  O  O12  1  0.757263  0.757263  0.275253  1
