# generated using pymatgen
data_CaSnF5
_symmetry_space_group_name_H-M   'P 1'
_cell_length_a   5.86583332
_cell_length_b   8.22831303
_cell_length_c   10.79127867
_cell_angle_alpha   90.00000000
_cell_angle_beta   90.00000000
_cell_angle_gamma   110.15861966
_symmetry_Int_Tables_number   1
_chemical_formula_structural   CaSnF5
_chemical_formula_sum   'Ca4 Sn4 F20'
_cell_volume   488.94471260
_cell_formula_units_Z   4
loop_
 _symmetry_equiv_pos_site_id
 _symmetry_equiv_pos_as_xyz
  1  'x, y, z'
loop_
 _atom_site_type_symbol
 _atom_site_label
 _atom_site_symmetry_multiplicity
 _atom_site_fract_x
 _atom_site_fract_y
 _atom_site_fract_z
 _atom_site_occupancy
  Ca  Ca0  1  0.473770  0.747060  0.016689  1
  Ca  Ca1  1  0.526230  0.752940  0.516689  1
  Ca  Ca2  1  0.526230  0.252940  0.983311  1
  Ca  Ca3  1  0.473770  0.247060  0.483311  1
  Sn  Sn4  1  0.897082  0.600685  0.753709  1
  Sn  Sn5  1  0.102918  0.899315  0.253709  1
  Sn  Sn6  1  0.102918  0.399315  0.246291  1
  Sn  Sn7  1  0.897082  0.100685  0.746291  1
  F  F8  1  0.599344  0.555001  0.890174  1
  F  F9  1  0.400656  0.944999  0.390174  1
  F  F10  1  0.400656  0.444999  0.109826  1
  F  F11  1  0.599344  0.055001  0.609826  1
  F  F12  1  0.630489  0.499981  0.604175  1
  F  F13  1  0.369511  0.000019  0.104175  1
  F  F14  1  0.369511  0.500019  0.395825  1
  F  F15  1  0.630489  -0.000019  0.895825  1
  F  F16  1  0.863460  0.806264  0.404619  1
  F  F17  1  0.136540  0.693736  0.904619  1
  F  F18  1  0.136540  0.193736  0.595381  1
  F  F19  1  0.863460  0.306264  0.095381  1
  F  F20  1  0.809134  0.855334  0.130003  1
  F  F21  1  0.190866  0.644666  0.630003  1
  F  F22  1  0.190866  0.144666  0.869997  1
  F  F23  1  0.809134  0.355334  0.369997  1
  F  F24  1  0.839123  0.835340  0.697378  1
  F  F25  1  0.160877  0.664660  0.197378  1
  F  F26  1  0.160877  0.164660  0.302622  1
  F  F27  1  0.839123  0.335340  0.802622  1
