# generated using pymatgen
data_Ca4Fe5(TeO6)3
_symmetry_space_group_name_H-M   'P 1'
_cell_length_a   9.06091100
_cell_length_b   9.06091105
_cell_length_c   10.81541895
_cell_angle_alpha   84.17158150
_cell_angle_beta   84.17158060
_cell_angle_gamma   68.10424994
_symmetry_Int_Tables_number   1
_chemical_formula_structural   Ca4Fe5(TeO6)3
_chemical_formula_sum   'Ca8 Fe10 Te6 O36'
_cell_volume   817.68214679
_cell_formula_units_Z   2
loop_
 _symmetry_equiv_pos_site_id
 _symmetry_equiv_pos_as_xyz
  1  'x, y, z'
loop_
 _atom_site_type_symbol
 _atom_site_label
 _atom_site_symmetry_multiplicity
 _atom_site_fract_x
 _atom_site_fract_y
 _atom_site_fract_z
 _atom_site_occupancy
  Ca  Ca0  1  0.856849  0.576671  0.390800  1
  Ca  Ca1  1  0.520041  0.570800  0.232039  1
  Ca  Ca2  1  0.423329  0.143151  0.609200  1
  Ca  Ca3  1  0.429200  0.479959  0.767961  1
  Ca  Ca4  1  0.180853  0.911509  0.732726  1
  Ca  Ca5  1  0.184467  0.247629  0.894697  1
  Ca  Ca6  1  0.752371  0.815533  0.105303  1
  Ca  Ca7  1  0.088491  0.819147  0.267274  1
  Fe  Fe8  1  0.794804  0.455339  0.970019  1
  Fe  Fe9  1  0.064071  0.185073  0.470038  1
  Fe  Fe10  1  0.320126  0.333005  0.326484  1
  Fe  Fe11  1  0.939791  0.715871  0.825888  1
  Fe  Fe12  1  0.666995  0.679874  0.673516  1
  Fe  Fe13  1  0.962991  0.037009  0.000000  1
  Fe  Fe14  1  0.644675  0.355325  0.500000  1
  Fe  Fe15  1  0.284129  0.060210  0.174112  1
  Fe  Fe16  1  0.814927  0.935929  0.529962  1
  Fe  Fe17  1  0.544661  0.205196  0.029981  1
  Te  Te18  1  0.475778  0.845736  0.913647  1
  Te  Te19  1  0.804468  0.195527  0.249778  1
  Te  Te20  1  0.804473  0.195532  0.750222  1
  Te  Te21  1  0.454975  0.869041  0.410735  1
  Te  Te22  1  0.130959  0.545025  0.589265  1
  Te  Te23  1  0.154264  0.524222  0.086353  1
  O  O24  1  0.373513  0.030307  0.805692  1
  O  O25  1  0.722056  0.414661  0.813429  1
  O  O26  1  0.625750  0.576571  0.548837  1
  O  O27  1  0.732809  0.122812  0.415239  1
  O  O28  1  0.585339  0.277944  0.186571  1
  O  O29  1  0.877188  0.267191  0.584761  1
  O  O30  1  0.330226  0.841864  0.278569  1
  O  O31  1  0.008486  0.143502  0.818082  1
  O  O32  1  0.600491  0.247992  0.682237  1
  O  O33  1  0.109989  0.376335  0.431718  1
  O  O34  1  0.642763  0.620243  0.052906  1
  O  O35  1  0.495792  0.014785  0.066245  1
  O  O36  1  0.887677  0.975481  0.687264  1
  O  O37  1  0.694734  0.789658  0.835531  1
  O  O38  1  0.379757  0.357237  0.947094  1
  O  O39  1  0.278936  0.547156  0.221772  1
  O  O40  1  0.966166  0.770050  0.447296  1
  O  O41  1  0.210342  0.305266  0.164469  1
  O  O42  1  0.423429  0.374250  0.451163  1
  O  O43  1  0.229950  0.033834  0.552704  1
  O  O44  1  0.639778  0.768879  0.303035  1
  O  O45  1  0.911568  0.606905  0.668511  1
  O  O46  1  0.856498  0.991514  0.181918  1
  O  O47  1  0.452844  0.721064  0.778228  1
  O  O48  1  0.985584  0.816537  0.949395  1
  O  O49  1  0.731653  0.123133  0.915357  1
  O  O50  1  0.985215  0.504208  0.933755  1
  O  O51  1  0.158136  0.669774  0.721431  1
  O  O52  1  0.024519  0.112323  0.312736  1
  O  O53  1  0.393095  0.088432  0.331489  1
  O  O54  1  0.231121  0.360222  0.696965  1
  O  O55  1  0.876867  0.268347  0.084643  1
  O  O56  1  0.752008  0.399509  0.317763  1
  O  O57  1  0.623664  0.890011  0.568282  1
  O  O58  1  0.183463  0.014416  0.050605  1
  O  O59  1  0.969693  0.626487  0.194308  1
