# generated using pymatgen
data_LaCrFeO6
_symmetry_space_group_name_H-M   'P 1'
_cell_length_a   5.47912024
_cell_length_b   5.33323304
_cell_length_c   7.68862472
_cell_angle_alpha   90.53415288
_cell_angle_beta   90.00000000
_cell_angle_gamma   90.00000000
_symmetry_Int_Tables_number   1
_chemical_formula_structural   LaCrFeO6
_chemical_formula_sum   'La2 Cr2 Fe2 O12'
_cell_volume   224.66280781
_cell_formula_units_Z   2
loop_
 _symmetry_equiv_pos_site_id
 _symmetry_equiv_pos_as_xyz
  1  'x, y, z'
loop_
 _atom_site_type_symbol
 _atom_site_label
 _atom_site_symmetry_multiplicity
 _atom_site_fract_x
 _atom_site_fract_y
 _atom_site_fract_z
 _atom_site_occupancy
  La  La0  1  0.037901  0.992044  0.245982  1
  La  La1  1  0.462099  0.492044  0.745982  1
  Cr  Cr2  1  0.519440  0.990648  0.488810  1
  Cr  Cr3  1  0.980560  0.490648  0.988810  1
  Fe  Fe4  1  0.500101  0.987880  0.992611  1
  Fe  Fe5  1  -0.000101  0.487880  0.492611  1
  O  O6  1  -0.000025  0.542258  0.763628  1
  O  O7  1  0.224129  0.252956  0.982959  1
  O  O8  1  0.236714  0.231129  0.526206  1
  O  O9  1  0.263286  0.731129  0.026206  1
  O  O10  1  0.275871  0.752956  0.482959  1
  O  O11  1  0.500025  0.042258  0.263628  1
  O  O12  1  0.506579  0.947087  0.743359  1
  O  O13  1  0.707756  0.263325  0.529304  1
  O  O14  1  0.736479  0.282274  0.977329  1
  O  O15  1  0.763521  0.782274  0.477329  1
  O  O16  1  0.792244  0.763325  0.029304  1
  O  O17  1  0.993421  0.447087  0.243359  1
