# generated using pymatgen
data_ZnSb4O9
_symmetry_space_group_name_H-M   'P 1'
_cell_length_a   5.15403831
_cell_length_b   9.33030093
_cell_length_c   9.33095225
_cell_angle_alpha   89.98807410
_cell_angle_beta   90.01370523
_cell_angle_gamma   90.00882506
_symmetry_Int_Tables_number   1
_chemical_formula_structural   ZnSb4O9
_chemical_formula_sum   'Zn2 Sb8 O18'
_cell_volume   448.71360090
_cell_formula_units_Z   2
loop_
 _symmetry_equiv_pos_site_id
 _symmetry_equiv_pos_as_xyz
  1  'x, y, z'
loop_
 _atom_site_type_symbol
 _atom_site_label
 _atom_site_symmetry_multiplicity
 _atom_site_fract_x
 _atom_site_fract_y
 _atom_site_fract_z
 _atom_site_occupancy
  Zn  Zn0  1  0.045304  0.249991  0.250033  1
  Zn  Zn1  1  0.954698  0.749975  0.749977  1
  Sb  Sb2  1  0.641595  0.522759  0.330613  1
  Sb  Sb3  1  0.358294  0.830605  0.477268  1
  Sb  Sb4  1  0.641560  0.330599  0.977221  1
  Sb  Sb5  1  0.358590  0.022779  0.830474  1
  Sb  Sb6  1  0.641589  0.977164  0.169465  1
  Sb  Sb7  1  0.641766  0.169480  0.522635  1
  Sb  Sb8  1  0.358284  0.477293  0.669445  1
  Sb  Sb9  1  0.358364  0.669370  0.022804  1
  O  O10  1  0.500093  0.750032  0.249824  1
  O  O11  1  0.499850  0.249710  0.750535  1
  O  O12  1  0.008703  0.692075  0.960264  1
  O  O13  1  0.008633  0.539872  0.692160  1
  O  O14  1  0.008861  0.960332  0.807924  1
  O  O15  1  0.008625  0.807958  0.539802  1
  O  O16  1  0.991242  0.307928  0.039799  1
  O  O17  1  0.991236  0.460303  0.307875  1
  O  O18  1  0.991251  0.039683  0.192065  1
  O  O19  1  0.991461  0.192091  0.460067  1
  O  O20  1  0.486494  0.052012  0.359363  1
  O  O21  1  0.486409  0.140441  0.051982  1
  O  O22  1  0.486676  0.359490  0.447651  1
  O  O23  1  0.486409  0.447977  0.140444  1
  O  O24  1  0.513525  0.552141  0.859591  1
  O  O25  1  0.513553  0.859619  0.948029  1
  O  O26  1  0.513500  0.640586  0.552020  1
  O  O27  1  0.513440  0.947735  0.640667  1
