# generated using pymatgen
data_ZnBiF5
_symmetry_space_group_name_H-M   'P 1'
_cell_length_a   5.56873898
_cell_length_b   8.58657973
_cell_length_c   10.77604281
_cell_angle_alpha   90.00000000
_cell_angle_beta   90.00000000
_cell_angle_gamma   108.69825568
_symmetry_Int_Tables_number   1
_chemical_formula_structural   ZnBiF5
_chemical_formula_sum   'Zn4 Bi4 F20'
_cell_volume   488.07577632
_cell_formula_units_Z   4
loop_
 _symmetry_equiv_pos_site_id
 _symmetry_equiv_pos_as_xyz
  1  'x, y, z'
loop_
 _atom_site_type_symbol
 _atom_site_label
 _atom_site_symmetry_multiplicity
 _atom_site_fract_x
 _atom_site_fract_y
 _atom_site_fract_z
 _atom_site_occupancy
  Zn  Zn0  1  0.501515  0.776808  0.992532  1
  Zn  Zn1  1  0.498485  0.723192  0.492532  1
  Zn  Zn2  1  0.498485  0.223192  0.007468  1
  Zn  Zn3  1  0.501515  0.276808  0.507468  1
  Bi  Bi4  1  0.909464  0.608406  0.757789  1
  Bi  Bi5  1  0.090536  0.891594  0.257789  1
  Bi  Bi6  1  0.090536  0.391594  0.242211  1
  Bi  Bi7  1  0.909464  0.108406  0.742211  1
  F  F8  1  0.605768  0.610748  0.891573  1
  F  F9  1  0.394232  0.889252  0.391573  1
  F  F10  1  0.394232  0.389252  0.108427  1
  F  F11  1  0.605768  0.110748  0.608427  1
  F  F12  1  0.636547  0.489034  0.603187  1
  F  F13  1  0.363453  0.010966  0.103187  1
  F  F14  1  0.363453  0.510966  0.396813  1
  F  F15  1  0.636547  0.989034  0.896813  1
  F  F16  1  0.837656  0.792394  0.425747  1
  F  F17  1  0.162344  0.707606  0.925747  1
  F  F18  1  0.162344  0.207606  0.574253  1
  F  F19  1  0.837656  0.292394  0.074253  1
  F  F20  1  0.738106  0.819068  0.127508  1
  F  F21  1  0.261894  0.680932  0.627508  1
  F  F22  1  0.261894  0.180932  0.872492  1
  F  F23  1  0.738106  0.319068  0.372492  1
  F  F24  1  0.823033  0.835409  0.687695  1
  F  F25  1  0.176967  0.664591  0.187695  1
  F  F26  1  0.176967  0.164591  0.312305  1
  F  F27  1  0.823033  0.335409  0.812305  1
