# generated using pymatgen
data_CaCuO2
_symmetry_space_group_name_H-M   'P 1'
_cell_length_a   3.60067742
_cell_length_b   10.93621942
_cell_length_c   8.48594192
_cell_angle_alpha   48.60333249
_cell_angle_beta   73.40015765
_cell_angle_gamma   60.55584848
_symmetry_Int_Tables_number   1
_chemical_formula_structural   CaCuO2
_chemical_formula_sum   'Ca4 Cu4 O8'
_cell_volume   217.89381475
_cell_formula_units_Z   4
loop_
 _symmetry_equiv_pos_site_id
 _symmetry_equiv_pos_as_xyz
  1  'x, y, z'
loop_
 _atom_site_type_symbol
 _atom_site_label
 _atom_site_symmetry_multiplicity
 _atom_site_fract_x
 _atom_site_fract_y
 _atom_site_fract_z
 _atom_site_occupancy
  Ca  Ca0  1  0.405466  0.145320  0.200032  1
  Ca  Ca1  1  0.593242  0.831058  0.828174  1
  Ca  Ca2  1  0.979093  0.776973  0.214250  1
  Ca  Ca3  1  0.012009  0.205000  0.808656  1
  Cu  Cu4  1  0.746726  0.179641  0.527011  1
  Cu  Cu5  1  0.191762  0.471552  0.180208  1
  Cu  Cu6  1  0.801299  0.504396  0.854754  1
  Cu  Cu7  1  0.250916  0.796010  0.500289  1
  O  O8  1  0.799254  0.725013  0.584442  1
  O  O9  1  0.293120  0.335368  0.838731  1
  O  O10  1  0.700773  0.642611  0.191429  1
  O  O11  1  0.185840  0.255592  0.449959  1
  O  O12  1  0.855615  0.999564  0.834479  1
  O  O13  1  0.696160  0.323140  0.138513  1
  O  O14  1  0.142335  0.977921  0.193389  1
  O  O15  1  0.300569  0.649760  0.901945  1
