# generated using pymatgen
data_MgMn2(PO4)2
_symmetry_space_group_name_H-M   'P 1'
_cell_length_a   5.12241099
_cell_length_b   8.45578496
_cell_length_c   15.55314448
_cell_angle_alpha   89.49925136
_cell_angle_beta   80.49091435
_cell_angle_gamma   72.38324763
_symmetry_Int_Tables_number   1
_chemical_formula_structural   MgMn2(PO4)2
_chemical_formula_sum   'Mg4 Mn8 P8 O32'
_cell_volume   632.64262938
_cell_formula_units_Z   4
loop_
 _symmetry_equiv_pos_site_id
 _symmetry_equiv_pos_as_xyz
  1  'x, y, z'
loop_
 _atom_site_type_symbol
 _atom_site_label
 _atom_site_symmetry_multiplicity
 _atom_site_fract_x
 _atom_site_fract_y
 _atom_site_fract_z
 _atom_site_occupancy
  Mg  Mg0  1  0.478148  0.808906  0.846904  1
  Mg  Mg1  1  0.132540  0.691012  0.653526  1
  Mg  Mg2  1  0.864160  0.309166  0.346817  1
  Mg  Mg3  1  0.519723  0.189742  0.153624  1
  Mn  Mn4  1  0.236891  0.199029  0.966531  1
  Mn  Mn5  1  0.402343  0.301758  0.533422  1
  Mn  Mn6  1  0.760645  0.800979  0.033449  1
  Mn  Mn7  1  0.496686  0.500097  0.000546  1
  Mn  Mn8  1  0.593604  0.699604  0.466710  1
  Mn  Mn9  1  0.516682  0.750343  0.250525  1
  Mn  Mn10  1  0.478771  0.249817  0.750458  1
  Mn  Mn11  1  0.998087  0.001147  0.500495  1
  P  P12  1  0.065716  0.564729  0.862032  1
  P  P13  1  0.775412  0.434003  0.617716  1
  P  P14  1  0.928014  0.435608  0.138359  1
  P  P15  1  0.170816  0.933408  0.117726  1
  P  P16  1  0.504491  0.064483  0.361995  1
  P  P17  1  0.493084  0.936205  0.638409  1
  P  P18  1  0.219911  0.566957  0.382507  1
  P  P19  1  0.827718  0.066831  0.882607  1
  O  O20  1  0.703627  0.369414  0.107633  1
  O  O21  1  0.685017  0.932427  0.916263  1
  O  O22  1  0.813894  0.869175  0.606868  1
  O  O23  1  0.828004  0.270958  0.562023  1
  O  O24  1  0.187348  0.393440  0.063333  1
  O  O25  1  0.676525  0.420145  0.714501  1
  O  O26  1  0.660624  0.229744  0.938335  1
  O  O27  1  0.864588  0.985395  0.101386  1
  O  O28  1  0.168268  0.730095  0.438035  1
  O  O29  1  0.532514  0.568100  0.583707  1
  O  O30  1  0.821045  0.628832  0.147210  1
  O  O31  1  0.588613  0.148134  0.278501  1
  O  O32  1  0.314986  0.066845  0.083303  1
  O  O33  1  0.046290  0.485987  0.601756  1
  O  O34  1  0.287941  0.631658  0.893604  1
  O  O35  1  0.173982  0.371525  0.853478  1
  O  O36  1  0.980124  0.649359  0.778846  1
  O  O37  1  0.337306  0.769614  0.062716  1
  O  O38  1  0.400080  0.129552  0.646553  1
  O  O39  1  0.409006  0.852290  0.721824  1
  O  O40  1  0.949365  0.514602  0.398886  1
  O  O41  1  0.348076  0.893426  0.564346  1
  O  O42  1  0.134239  0.014475  0.898860  1
  O  O43  1  0.185165  0.920957  0.214665  1
  O  O44  1  0.463477  0.432868  0.416216  1
  O  O45  1  0.183781  0.131624  0.393626  1
  O  O46  1  0.015845  0.350288  0.221160  1
  O  O47  1  0.649674  0.107803  0.435868  1
  O  O48  1  0.803671  0.607398  0.936166  1
  O  O49  1  0.813642  0.081412  0.785755  1
  O  O50  1  0.316535  0.580981  0.285588  1
  O  O51  1  0.597642  0.871168  0.353849  1
