# generated using pymatgen
data_SrCaV(PO4)2
_symmetry_space_group_name_H-M   'P 1'
_cell_length_a   5.74496841
_cell_length_b   6.98154296
_cell_length_c   9.63758239
_cell_angle_alpha   109.92493468
_cell_angle_beta   101.06915676
_cell_angle_gamma   98.27141532
_symmetry_Int_Tables_number   1
_chemical_formula_structural   SrCaV(PO4)2
_chemical_formula_sum   'Sr2 Ca2 V2 P4 O16'
_cell_volume   347.35446863
_cell_formula_units_Z   2
loop_
 _symmetry_equiv_pos_site_id
 _symmetry_equiv_pos_as_xyz
  1  'x, y, z'
loop_
 _atom_site_type_symbol
 _atom_site_label
 _atom_site_symmetry_multiplicity
 _atom_site_fract_x
 _atom_site_fract_y
 _atom_site_fract_z
 _atom_site_occupancy
  Sr  Sr0  1  0.258833  0.806999  0.054667  1
  Sr  Sr1  1  0.741167  0.193001  0.945333  1
  Ca  Ca2  1  -0.000380  0.418489  0.661326  1
  Ca  Ca3  1  0.000380  0.581511  0.338674  1
  V  V4  1  0.652915  0.852415  0.563630  1
  V  V5  1  0.347084  0.147585  0.436370  1
  P  P6  1  0.390108  0.415305  0.223170  1
  P  P7  1  0.609892  0.584695  0.776830  1
  P  P8  1  0.838234  0.029965  0.297701  1
  P  P9  1  0.161766  0.970035  0.702299  1
  O  O10  1  0.836706  0.554856  0.879647  1
  O  O11  1  0.623147  0.450120  0.169073  1
  O  O12  1  0.664498  0.805314  0.771306  1
  O  O13  1  0.968694  0.109435  0.702190  1
  O  O14  1  0.376853  0.549880  0.830927  1
  O  O15  1  0.008060  0.741974  0.594009  1
  O  O16  1  0.991940  0.258026  0.405991  1
  O  O17  1  0.272716  0.993063  0.865211  1
  O  O18  1  0.335502  0.194686  0.228694  1
  O  O19  1  0.727284  0.006937  0.134789  1
  O  O20  1  0.163294  0.445144  0.120353  1
  O  O21  1  0.416337  0.581055  0.386538  1
  O  O22  1  0.583663  0.418945  0.613462  1
  O  O23  1  0.636823  0.968907  0.374391  1
  O  O24  1  0.031306  0.890565  0.297810  1
  O  O25  1  0.363177  0.031093  0.625609  1
