# generated using pymatgen
data_Zn2Sb3O8
_symmetry_space_group_name_H-M   'P 1'
_cell_length_a   6.53862894
_cell_length_b   6.53862855
_cell_length_c   9.58772485
_cell_angle_alpha   90.00000000
_cell_angle_beta   90.00000000
_cell_angle_gamma   120.00000196
_symmetry_Int_Tables_number   1
_chemical_formula_structural   Zn2Sb3O8
_chemical_formula_sum   'Zn4 Sb6 O16'
_cell_volume   354.99279947
_cell_formula_units_Z   2
loop_
 _symmetry_equiv_pos_site_id
 _symmetry_equiv_pos_as_xyz
  1  'x, y, z'
loop_
 _atom_site_type_symbol
 _atom_site_label
 _atom_site_symmetry_multiplicity
 _atom_site_fract_x
 _atom_site_fract_y
 _atom_site_fract_z
 _atom_site_occupancy
  Zn  Zn0  1  0.666667  0.333334  0.038003  1
  Zn  Zn1  1  0.333333  0.666666  0.538004  1
  Zn  Zn2  1  0.666667  0.333334  0.405335  1
  Zn  Zn3  1  0.333333  0.666666  0.905336  1
  Sb  Sb4  1  0.669301  0.834651  0.242563  1
  Sb  Sb5  1  0.834652  0.165350  0.742563  1
  Sb  Sb6  1  0.165350  0.330700  0.242563  1
  Sb  Sb7  1  0.834650  0.669301  0.742563  1
  Sb  Sb8  1  0.330700  0.165350  0.742563  1
  Sb  Sb9  1  0.165350  0.834651  0.242563  1
  O  O10  1  0.833211  0.166790  0.143034  1
  O  O11  1  0.666420  0.833211  0.643033  1
  O  O12  1  0.166790  0.333581  0.643033  1
  O  O13  1  0.833210  0.666420  0.143034  1
  O  O14  1  0.333580  0.166790  0.143034  1
  O  O15  1  0.166790  0.833211  0.643033  1
  O  O16  1  0.515836  0.484163  0.875288  1
  O  O17  1  0.031672  0.515836  0.375287  1
  O  O18  1  0.484164  0.968329  0.375287  1
  O  O19  1  0.515836  0.031672  0.875288  1
  O  O20  1  0.000000  0.000000  0.348814  1
  O  O21  1  0.000000  0.000000  0.848814  1
  O  O22  1  0.333333  0.666666  0.118699  1
  O  O23  1  0.968327  0.484163  0.875288  1
  O  O24  1  0.484163  0.515836  0.375287  1
  O  O25  1  0.666667  0.333334  0.618699  1
