# generated using pymatgen
data_V5Zn4(TeO6)3
_symmetry_space_group_name_H-M   'P 1'
_cell_length_a   8.76947049
_cell_length_b   8.76947113
_cell_length_c   10.76504871
_cell_angle_alpha   85.70054099
_cell_angle_beta   85.70053943
_cell_angle_gamma   62.86108349
_symmetry_Int_Tables_number   1
_chemical_formula_structural   V5Zn4(TeO6)3
_chemical_formula_sum   'V10 Zn8 Te6 O36'
_cell_volume   733.87611615
_cell_formula_units_Z   2
loop_
 _symmetry_equiv_pos_site_id
 _symmetry_equiv_pos_as_xyz
  1  'x, y, z'
loop_
 _atom_site_type_symbol
 _atom_site_label
 _atom_site_symmetry_multiplicity
 _atom_site_fract_x
 _atom_site_fract_y
 _atom_site_fract_z
 _atom_site_occupancy
  V  V0  1  0.802614  0.495751  0.982168  1
  V  V1  1  0.106741  0.191290  0.480028  1
  V  V2  1  0.338633  0.336748  0.300542  1
  V  V3  1  0.945367  0.729905  0.800435  1
  V  V4  1  0.663252  0.661367  0.699458  1
  V  V5  1  0.974348  0.025652  0.000000  1
  V  V6  1  0.632761  0.367239  0.500000  1
  V  V7  1  0.270095  0.054634  0.199565  1
  V  V8  1  0.808710  0.893259  0.519972  1
  V  V9  1  0.504249  0.197386  0.017832  1
  Zn  Zn10  1  0.863934  0.546047  0.320656  1
  Zn  Zn11  1  0.486302  0.579365  0.214661  1
  Zn  Zn12  1  0.453953  0.136066  0.679344  1
  Zn  Zn13  1  0.420635  0.513698  0.785339  1
  Zn  Zn14  1  0.187036  0.877436  0.715181  1
  Zn  Zn15  1  0.154114  0.256325  0.820476  1
  Zn  Zn16  1  0.743675  0.845886  0.179524  1
  Zn  Zn17  1  0.122564  0.812964  0.284819  1
  Te  Te18  1  0.460252  0.855847  0.949042  1
  Te  Te19  1  0.802775  0.195633  0.251092  1
  Te  Te20  1  0.804367  0.197225  0.748908  1
  Te  Te21  1  0.465986  0.851585  0.449441  1
  Te  Te22  1  0.148415  0.534014  0.550559  1
  Te  Te23  1  0.144153  0.539748  0.050958  1
  O  O24  1  0.404955  0.121030  0.865949  1
  O  O25  1  0.737821  0.438531  0.814800  1
  O  O26  1  0.580210  0.590617  0.566094  1
  O  O27  1  0.730395  0.129112  0.429047  1
  O  O28  1  0.561469  0.262179  0.185200  1
  O  O29  1  0.870888  0.269605  0.570953  1
  O  O30  1  0.351786  0.817295  0.285939  1
  O  O31  1  0.053439  0.089378  0.823082  1
  O  O32  1  0.554256  0.303481  0.676545  1
  O  O33  1  0.085394  0.421353  0.403538  1
  O  O34  1  0.566497  0.626766  0.049632  1
  O  O35  1  0.522256  0.970706  0.096399  1
  O  O36  1  0.871634  0.950838  0.683287  1
  O  O37  1  0.712294  0.741997  0.867654  1
  O  O38  1  0.373234  0.433503  0.950368  1
  O  O39  1  0.257479  0.573900  0.213899  1
  O  O40  1  0.040801  0.764952  0.448886  1
  O  O41  1  0.258003  0.287706  0.132346  1
  O  O42  1  0.409383  0.419790  0.433906  1
  O  O43  1  0.235048  0.959199  0.551114  1
  O  O44  1  0.728296  0.797145  0.366848  1
  O  O45  1  0.895743  0.648618  0.632840  1
  O  O46  1  0.910622  0.946561  0.176918  1
  O  O47  1  0.426100  0.742521  0.786101  1
  O  O48  1  0.027559  0.803016  0.932867  1
  O  O49  1  0.735138  0.123352  0.931784  1
  O  O50  1  0.029294  0.477744  0.903601  1
  O  O51  1  0.182705  0.648214  0.714061  1
  O  O52  1  0.049162  0.128366  0.316713  1
  O  O53  1  0.351382  0.104257  0.367160  1
  O  O54  1  0.202855  0.271704  0.633152  1
  O  O55  1  0.876648  0.264862  0.068216  1
  O  O56  1  0.696519  0.445744  0.323455  1
  O  O57  1  0.578647  0.914606  0.596462  1
  O  O58  1  0.196984  0.972441  0.067133  1
  O  O59  1  0.878970  0.595045  0.134051  1
