# generated using pymatgen
data_Zn(WO2)4
_symmetry_space_group_name_H-M   'P 1'
_cell_length_a   3.30082685
_cell_length_b   7.76327582
_cell_length_c   7.78300155
_cell_angle_alpha   87.37219646
_cell_angle_beta   77.56452619
_cell_angle_gamma   77.88094334
_symmetry_Int_Tables_number   1
_chemical_formula_structural   Zn(WO2)4
_chemical_formula_sum   'Zn1 W4 O8'
_cell_volume   190.42152109
_cell_formula_units_Z   1
loop_
 _symmetry_equiv_pos_site_id
 _symmetry_equiv_pos_as_xyz
  1  'x, y, z'
loop_
 _atom_site_type_symbol
 _atom_site_label
 _atom_site_symmetry_multiplicity
 _atom_site_fract_x
 _atom_site_fract_y
 _atom_site_fract_z
 _atom_site_occupancy
  Zn  Zn0  1  0.479334  0.001649  0.037372  1
  W  W1  1  0.641602  0.183421  0.538028  1
  W  W2  1  0.142532  0.492979  0.218082  1
  W  W3  1  0.823953  0.502962  0.847526  1
  W  W4  1  0.331436  0.812246  0.527620  1
  O  O5  1  0.824414  0.694036  0.657367  1
  O  O6  1  0.446590  0.372917  0.729455  1
  O  O7  1  0.521976  0.622928  0.335904  1
  O  O8  1  0.145692  0.301481  0.407808  1
  O  O9  1  0.149160  0.050730  0.655161  1
  O  O10  1  0.766263  0.375717  0.086186  1
  O  O11  1  0.825290  0.944818  0.410715  1
  O  O12  1  0.199242  0.620224  0.979421  1
