# generated using pymatgen
data_Ca3Ta2Mn2O12
_symmetry_space_group_name_H-M   'P 1'
_cell_length_a   5.32129326
_cell_length_b   5.51328351
_cell_length_c   7.76813507
_cell_angle_alpha   90.00000000
_cell_angle_beta   90.00000000
_cell_angle_gamma   90.23900488
_symmetry_Int_Tables_number   1
_chemical_formula_structural   Ca3Ta2Mn2O12
_chemical_formula_sum   'Ca3 Ta2 Mn2 O12'
_cell_volume   227.89799786
_cell_formula_units_Z   1
loop_
 _symmetry_equiv_pos_site_id
 _symmetry_equiv_pos_as_xyz
  1  'x, y, z'
loop_
 _atom_site_type_symbol
 _atom_site_label
 _atom_site_symmetry_multiplicity
 _atom_site_fract_x
 _atom_site_fract_y
 _atom_site_fract_z
 _atom_site_occupancy
  Ca  Ca0  1  0.014993  0.963425  0.250000  1
  Ca  Ca1  1  0.514018  0.558030  0.750000  1
  Ca  Ca2  1  0.987329  0.036665  0.750000  1
  Ta  Ta3  1  0.004702  0.497806  0.007495  1
  Ta  Ta4  1  0.004702  0.497806  0.492505  1
  Mn  Mn5  1  0.502288  0.005768  0.005726  1
  Mn  Mn6  1  0.502288  0.005768  0.494274  1
  O  O7  1  0.784928  0.790969  0.539588  1
  O  O8  1  0.284135  0.724815  0.468157  1
  O  O9  1  0.205090  0.201950  0.468323  1
  O  O10  1  0.713211  0.281061  0.950768  1
  O  O11  1  0.074316  0.486732  0.750000  1
  O  O12  1  0.713211  0.281061  0.549232  1
  O  O13  1  0.284135  0.724815  0.031843  1
  O  O14  1  0.784928  0.790969  0.960412  1
  O  O15  1  0.584149  0.020319  0.250000  1
  O  O16  1  0.205090  0.201950  0.031677  1
  O  O17  1  0.422072  0.978203  0.750000  1
  O  O18  1  0.920390  0.518198  0.250000  1
