# generated using pymatgen
data_ZnSn2O5
_symmetry_space_group_name_H-M   'P 1'
_cell_length_a   3.99357167
_cell_length_b   5.61429489
_cell_length_c   10.44133821
_cell_angle_alpha   90.00000000
_cell_angle_beta   90.00000000
_cell_angle_gamma   110.83395692
_symmetry_Int_Tables_number   1
_chemical_formula_structural   ZnSn2O5
_chemical_formula_sum   'Zn2 Sn4 O10'
_cell_volume   218.79915411
_cell_formula_units_Z   2
loop_
 _symmetry_equiv_pos_site_id
 _symmetry_equiv_pos_as_xyz
  1  'x, y, z'
loop_
 _atom_site_type_symbol
 _atom_site_label
 _atom_site_symmetry_multiplicity
 _atom_site_fract_x
 _atom_site_fract_y
 _atom_site_fract_z
 _atom_site_occupancy
  Zn  Zn0  1  0.818036  0.636071  0.750000  1
  Zn  Zn1  1  0.181965  0.363930  0.250000  1
  Sn  Sn2  1  0.136398  0.272796  0.566791  1
  Sn  Sn3  1  0.863603  0.727205  0.433208  1
  Sn  Sn4  1  0.863603  0.727205  0.066792  1
  Sn  Sn5  1  0.136398  0.272796  0.933209  1
  O  O6  1  0.776214  0.552426  0.250000  1
  O  O7  1  0.223787  0.447575  0.750000  1
  O  O8  1  0.306271  0.612540  0.060514  1
  O  O9  1  0.693731  0.387461  0.939486  1
  O  O10  1  0.693731  0.387461  0.560514  1
  O  O11  1  0.306271  0.612540  0.439485  1
  O  O12  1  0.948571  0.897140  0.612910  1
  O  O13  1  0.051429  0.102859  0.387090  1
  O  O14  1  0.948571  0.897140  0.887090  1
  O  O15  1  0.051429  0.102859  0.112911  1
