# generated using pymatgen
data_Zn3Si3(AgO6)2
_symmetry_space_group_name_H-M   'P 1'
_cell_length_a   10.43844427
_cell_length_b   10.43844455
_cell_length_c   10.43844421
_cell_angle_alpha   109.47122183
_cell_angle_beta   109.47122242
_cell_angle_gamma   109.47121834
_symmetry_Int_Tables_number   1
_chemical_formula_structural   Zn3Si3(AgO6)2
_chemical_formula_sum   'Zn12 Si12 Ag8 O48'
_cell_volume   875.55905799
_cell_formula_units_Z   4
loop_
 _symmetry_equiv_pos_site_id
 _symmetry_equiv_pos_as_xyz
  1  'x, y, z'
loop_
 _atom_site_type_symbol
 _atom_site_label
 _atom_site_symmetry_multiplicity
 _atom_site_fract_x
 _atom_site_fract_y
 _atom_site_fract_z
 _atom_site_occupancy
  Zn  Zn0  1  0.375000  0.750000  0.125000  1
  Zn  Zn1  1  0.125000  0.250000  0.375000  1
  Zn  Zn2  1  0.375000  0.125000  0.250000  1
  Zn  Zn3  1  0.125000  0.375000  0.750000  1
  Zn  Zn4  1  0.875000  0.750000  0.625000  1
  Zn  Zn5  1  0.750000  0.125000  0.375000  1
  Zn  Zn6  1  0.750000  0.625000  0.875000  1
  Zn  Zn7  1  0.625000  0.250000  0.875000  1
  Zn  Zn8  1  0.250000  0.875000  0.625000  1
  Zn  Zn9  1  0.875000  0.625000  0.250000  1
  Zn  Zn10  1  0.625000  0.875000  0.750000  1
  Zn  Zn11  1  0.250000  0.375000  0.125000  1
  Si  Si12  1  0.250000  0.125000  0.875000  1
  Si  Si13  1  0.750000  0.875000  0.125000  1
  Si  Si14  1  0.375000  0.250000  0.625000  1
  Si  Si15  1  0.625000  0.375000  0.250000  1
  Si  Si16  1  0.125000  0.750000  0.875000  1
  Si  Si17  1  0.875000  0.125000  0.750000  1
  Si  Si18  1  0.750000  0.375000  0.625000  1
  Si  Si19  1  0.375000  0.625000  0.750000  1
  Si  Si20  1  0.125000  0.875000  0.250000  1
  Si  Si21  1  0.875000  0.250000  0.125000  1
  Si  Si22  1  0.625000  0.750000  0.375000  1
  Si  Si23  1  0.250000  0.625000  0.375000  1
  Ag  Ag24  1  0.000000  0.000000  0.000000  1
  Ag  Ag25  1  0.000000  0.500000  0.000000  1
  Ag  Ag26  1  0.000000  0.000000  0.500000  1
  Ag  Ag27  1  0.000000  0.500000  0.500000  1
  Ag  Ag28  1  0.500000  0.000000  0.500000  1
  Ag  Ag29  1  0.500000  0.500000  0.000000  1
  Ag  Ag30  1  0.500000  0.500000  0.500000  1
  Ag  Ag31  1  0.500000  0.000000  0.000000  1
  O  O32  1  0.272891  0.473208  0.369336  1
  O  O33  1  0.026792  0.299683  0.896127  1
  O  O34  1  0.130664  0.603873  0.903555  1
  O  O35  1  0.227109  0.596445  0.200317  1
  O  O36  1  0.227109  0.130664  0.026792  1
  O  O37  1  0.596445  0.200317  0.227109  1
  O  O38  1  0.603873  0.200317  0.473208  1
  O  O39  1  0.200317  0.227109  0.596445  1
  O  O40  1  0.896127  0.369336  0.596445  1
  O  O41  1  0.299683  0.903555  0.272891  1
  O  O42  1  0.903555  0.272891  0.299683  1
  O  O43  1  0.026792  0.227109  0.130664  1
  O  O44  1  0.200317  0.473208  0.603873  1
  O  O45  1  0.596445  0.896127  0.369336  1
  O  O46  1  0.130664  0.026792  0.227109  1
  O  O47  1  0.473208  0.603873  0.200317  1
  O  O48  1  0.369336  0.596445  0.896127  1
  O  O49  1  0.896127  0.026792  0.299683  1
  O  O50  1  0.603873  0.903555  0.130664  1
  O  O51  1  0.103873  0.630664  0.403555  1
  O  O52  1  0.903555  0.130664  0.603873  1
  O  O53  1  0.369336  0.272891  0.473208  1
  O  O54  1  0.299683  0.896127  0.026792  1
  O  O55  1  0.272891  0.299683  0.903555  1
  O  O56  1  0.727109  0.526792  0.630664  1
  O  O57  1  0.973208  0.700317  0.103873  1
  O  O58  1  0.869336  0.396127  0.096445  1
  O  O59  1  0.772891  0.403555  0.799683  1
  O  O60  1  0.772891  0.869336  0.973208  1
  O  O61  1  0.403555  0.799683  0.772891  1
  O  O62  1  0.396127  0.799683  0.526792  1
  O  O63  1  0.799683  0.772891  0.403555  1
  O  O64  1  0.727109  0.700317  0.096445  1
  O  O65  1  0.700317  0.103873  0.973208  1
  O  O66  1  0.630664  0.727109  0.526792  1
  O  O67  1  0.526792  0.630664  0.727109  1
  O  O68  1  0.096445  0.869336  0.396127  1
  O  O69  1  0.396127  0.096445  0.869336  1
  O  O70  1  0.103873  0.973208  0.700317  1
  O  O71  1  0.630664  0.403555  0.103873  1
  O  O72  1  0.526792  0.396127  0.799683  1
  O  O73  1  0.869336  0.973208  0.772891  1
  O  O74  1  0.403555  0.103873  0.630664  1
  O  O75  1  0.799683  0.526792  0.396127  1
  O  O76  1  0.973208  0.772891  0.869336  1
  O  O77  1  0.096445  0.727109  0.700317  1
  O  O78  1  0.700317  0.096445  0.727109  1
  O  O79  1  0.473208  0.369336  0.272891  1
