# generated using pymatgen
data_MgP3W3O13
_symmetry_space_group_name_H-M   'P 1'
_cell_length_a   6.69232078
_cell_length_b   7.91990593
_cell_length_c   10.46359590
_cell_angle_alpha   98.81551619
_cell_angle_beta   90.00000000
_cell_angle_gamma   90.00000000
_symmetry_Int_Tables_number   1
_chemical_formula_structural   MgP3W3O13
_chemical_formula_sum   'Mg2 P6 W6 O26'
_cell_volume   548.04577089
_cell_formula_units_Z   2
loop_
 _symmetry_equiv_pos_site_id
 _symmetry_equiv_pos_as_xyz
  1  'x, y, z'
loop_
 _atom_site_type_symbol
 _atom_site_label
 _atom_site_symmetry_multiplicity
 _atom_site_fract_x
 _atom_site_fract_y
 _atom_site_fract_z
 _atom_site_occupancy
  Mg  Mg0  1  0.750000  0.603901  0.181595  1
  Mg  Mg1  1  0.250000  0.396099  0.818405  1
  P  P2  1  0.250000  0.216202  0.508217  1
  P  P3  1  0.750000  0.783798  0.491783  1
  P  P4  1  0.250000  0.733510  0.765107  1
  P  P5  1  0.750000  0.266490  0.234893  1
  P  P6  1  0.750000  0.323883  0.896843  1
  P  P7  1  0.250000  0.676117  0.103157  1
  W  W8  1  0.250000  0.357345  0.206410  1
  W  W9  1  0.750000  0.642655  0.793590  1
  W  W10  1  0.250000  0.767714  0.434119  1
  W  W11  1  0.500000  -0.000000  0.000000  1
  W  W12  1  0.750000  0.232286  0.565881  1
  W  W13  1  -0.000000  -0.000000  0.000000  1
  O  O14  1  0.750000  0.365456  0.754591  1
  O  O15  1  0.568653  0.743153  0.397839  1
  O  O16  1  0.250000  0.803935  0.639806  1
  O  O17  1  0.551744  0.228506  0.910553  1
  O  O18  1  0.750000  0.659729  0.592691  1
  O  O19  1  0.750000  0.886386  0.897269  1
  O  O20  1  0.250000  0.340271  0.407309  1
  O  O21  1  0.051744  0.771494  0.089447  1
  O  O22  1  0.250000  0.031772  0.436892  1
  O  O23  1  0.750000  0.968228  0.563108  1
  O  O24  1  0.072779  0.611715  0.784880  1
  O  O25  1  0.250000  0.113614  0.102731  1
  O  O26  1  0.572779  0.388285  0.215120  1
  O  O27  1  0.750000  0.507964  0.977597  1
  O  O28  1  0.750000  0.196065  0.360194  1
  O  O29  1  0.448256  0.771494  0.089447  1
  O  O30  1  0.931347  0.743153  0.397839  1
  O  O31  1  0.431347  0.256847  0.602161  1
  O  O32  1  0.427221  0.611715  0.784880  1
  O  O33  1  0.250000  0.634544  0.245409  1
  O  O34  1  0.750000  0.108883  0.123147  1
  O  O35  1  0.250000  0.891116  0.876853  1
  O  O36  1  0.927221  0.388285  0.215120  1
  O  O37  1  0.948256  0.228506  0.910553  1
  O  O38  1  0.068653  0.256847  0.602161  1
  O  O39  1  0.250000  0.492036  0.022403  1
