# generated using pymatgen
data_Sr2Cu2BiO7
_symmetry_space_group_name_H-M   'P 1'
_cell_length_a   5.12826287
_cell_length_b   5.17464719
_cell_length_c   14.23755495
_cell_angle_alpha   100.49513329
_cell_angle_beta   100.22689889
_cell_angle_gamma   89.95877797
_symmetry_Int_Tables_number   1
_chemical_formula_structural   Sr2Cu2BiO7
_chemical_formula_sum   'Sr4 Cu4 Bi2 O14'
_cell_volume   365.40297129
_cell_formula_units_Z   2
loop_
 _symmetry_equiv_pos_site_id
 _symmetry_equiv_pos_as_xyz
  1  'x, y, z'
loop_
 _atom_site_type_symbol
 _atom_site_label
 _atom_site_symmetry_multiplicity
 _atom_site_fract_x
 _atom_site_fract_y
 _atom_site_fract_z
 _atom_site_occupancy
  Sr  Sr0  1  0.336011  0.358878  0.718288  1
  Sr  Sr1  1  0.620740  0.640802  0.281834  1
  Sr  Sr2  1  0.836115  0.858948  0.718273  1
  Sr  Sr3  1  0.121013  0.140452  0.281853  1
  Cu  Cu4  1  0.917644  0.439647  0.878855  1
  Cu  Cu5  1  0.044264  0.560116  0.121353  1
  Cu  Cu6  1  0.416702  0.938689  0.878964  1
  Cu  Cu7  1  0.544097  0.061260  0.121653  1
  Bi  Bi8  1  0.251595  0.738204  0.500677  1
  Bi  Bi9  1  0.751283  0.261679  0.500478  1
  O  O10  1  0.178926  0.318158  0.500180  1
  O  O11  1  0.679002  0.681025  0.500202  1
  O  O12  1  0.153301  0.175806  0.850584  1
  O  O13  1  0.308820  0.824759  0.150167  1
  O  O14  1  0.654061  0.175388  0.850683  1
  O  O15  1  0.808285  0.825465  0.150208  1
  O  O16  1  0.652160  0.674080  0.849485  1
  O  O17  1  0.807637  0.325367  0.151334  1
  O  O18  1  0.152444  0.675341  0.849527  1
  O  O19  1  0.308811  0.324268  0.151287  1
  O  O20  1  0.304114  0.835483  0.659241  1
  O  O21  1  0.647366  0.164023  0.341363  1
  O  O22  1  0.804029  0.322760  0.659065  1
  O  O23  1  0.147286  0.676645  0.341352  1
