# generated using pymatgen
data_Ca2Ti3O8
_symmetry_space_group_name_H-M   'P 1'
_cell_length_a   5.09565174
_cell_length_b   6.11843338
_cell_length_c   6.39458494
_cell_angle_alpha   118.58143921
_cell_angle_beta   107.95838181
_cell_angle_gamma   89.99999684
_symmetry_Int_Tables_number   1
_chemical_formula_structural   Ca2Ti3O8
_chemical_formula_sum   'Ca2 Ti3 O8'
_cell_volume   163.92507866
_cell_formula_units_Z   1
loop_
 _symmetry_equiv_pos_site_id
 _symmetry_equiv_pos_as_xyz
  1  'x, y, z'
loop_
 _atom_site_type_symbol
 _atom_site_label
 _atom_site_symmetry_multiplicity
 _atom_site_fract_x
 _atom_site_fract_y
 _atom_site_fract_z
 _atom_site_occupancy
  Ca  Ca0  1  0.662990  0.725429  0.450857  1
  Ca  Ca1  1  0.337009  0.274572  0.549143  1
  Ti  Ti2  1  0.500000  0.999999  0.000000  1
  Ti  Ti3  1  0.999999  0.733279  0.000000  1
  Ti  Ti4  1  0.999999  0.266721  1.000000  1
  O  O5  1  0.047005  0.396226  0.792452  1
  O  O6  1  0.952995  0.603773  0.207548  1
  O  O7  1  0.094919  0.900230  0.800460  1
  O  O8  1  0.905081  0.099769  0.199539  1
  O  O9  1  0.393271  0.324221  0.207903  1
  O  O10  1  0.393271  0.883681  0.207903  1
  O  O11  1  0.606730  0.116318  0.792097  1
  O  O12  1  0.606730  0.675779  0.792097  1
