# generated using pymatgen
data_AlCo(WO4)2
_symmetry_space_group_name_H-M   'P 1'
_cell_length_a   5.05992438
_cell_length_b   5.74262531
_cell_length_c   5.98455292
_cell_angle_alpha   104.88440506
_cell_angle_beta   121.31627435
_cell_angle_gamma   90.14514411
_symmetry_Int_Tables_number   1
_chemical_formula_structural   AlCo(WO4)2
_chemical_formula_sum   'Al1 Co1 W2 O8'
_cell_volume   141.61290541
_cell_formula_units_Z   1
loop_
 _symmetry_equiv_pos_site_id
 _symmetry_equiv_pos_as_xyz
  1  'x, y, z'
loop_
 _atom_site_type_symbol
 _atom_site_label
 _atom_site_symmetry_multiplicity
 _atom_site_fract_x
 _atom_site_fract_y
 _atom_site_fract_z
 _atom_site_occupancy
  Al  Al0  1  0.621832  0.778333  0.145069  1
  Co  Co1  1  0.163327  0.321634  0.128781  1
  W  W2  1  0.890059  0.391232  0.593276  1
  W  W3  1  0.384627  0.027275  0.602077  1
  O  O4  1  0.203270  0.639666  0.863022  1
  O  O5  1  0.593254  0.537164  0.331819  1
  O  O6  1  0.145223  0.154031  0.787258  1
  O  O7  1  0.545215  0.043323  0.346969  1
  O  O8  1  0.624138  0.898350  0.881218  1
  O  O9  1  0.037630  0.764555  0.323365  1
  O  O10  1  0.080354  0.258241  0.390509  1
  O  O11  1  0.707071  0.364692  0.802734  1
