# generated using pymatgen
data_Ba2YMo3O8
_symmetry_space_group_name_H-M   'P 1'
_cell_length_a   4.20064628
_cell_length_b   4.19358911
_cell_length_c   11.81016150
_cell_angle_alpha   90.00144851
_cell_angle_beta   90.00225315
_cell_angle_gamma   89.47631011
_symmetry_Int_Tables_number   1
_chemical_formula_structural   Ba2YMo3O8
_chemical_formula_sum   'Ba2 Y1 Mo3 O8'
_cell_volume   208.03656950
_cell_formula_units_Z   1
loop_
 _symmetry_equiv_pos_site_id
 _symmetry_equiv_pos_as_xyz
  1  'x, y, z'
loop_
 _atom_site_type_symbol
 _atom_site_label
 _atom_site_symmetry_multiplicity
 _atom_site_fract_x
 _atom_site_fract_y
 _atom_site_fract_z
 _atom_site_occupancy
  Ba  Ba0  1  0.500030  0.500040  0.169571  1
  Ba  Ba1  1  0.499967  0.499960  0.830423  1
  Y  Y2  1  0.499998  0.500001  0.499999  1
  Mo  Mo3  1  0.000047  0.000054  0.357759  1
  Mo  Mo4  1  0.000002  0.999998  0.000015  1
  Mo  Mo5  1  -0.000047  -0.000053  0.642233  1
  O  O6  1  0.999973  0.499907  0.381216  1
  O  O7  1  0.499925  0.999962  0.380723  1
  O  O8  1  0.500000  0.000001  0.999987  1
  O  O9  1  0.999910  0.999889  0.173164  1
  O  O10  1  0.000031  0.500095  0.618880  1
  O  O11  1  0.500075  0.000040  0.619212  1
  O  O12  1  0.000088  0.000107  0.826820  1
  O  O13  1  0.000001  0.499999  -0.000002  1
