# generated using pymatgen
data_Nb2(CoO3)3
_symmetry_space_group_name_H-M   'P 1'
_cell_length_a   5.12713950
_cell_length_b   5.12713930
_cell_length_c   14.32945719
_cell_angle_alpha   90.00000000
_cell_angle_beta   90.00000000
_cell_angle_gamma   120.00000126
_symmetry_Int_Tables_number   1
_chemical_formula_structural   Nb2(CoO3)3
_chemical_formula_sum   'Nb4 Co6 O18'
_cell_volume   326.22002513
_cell_formula_units_Z   2
loop_
 _symmetry_equiv_pos_site_id
 _symmetry_equiv_pos_as_xyz
  1  'x, y, z'
loop_
 _atom_site_type_symbol
 _atom_site_label
 _atom_site_symmetry_multiplicity
 _atom_site_fract_x
 _atom_site_fract_y
 _atom_site_fract_z
 _atom_site_occupancy
  Nb  Nb0  1  0.000000  0.000000  0.857417  1
  Nb  Nb1  1  0.000000  0.000000  0.143851  1
  Nb  Nb2  1  0.000000  0.000000  0.643851  1
  Nb  Nb3  1  0.000000  0.000000  0.357417  1
  Co  Co4  1  0.666667  0.333333  0.677636  1
  Co  Co5  1  0.666667  0.333333  0.983404  1
  Co  Co6  1  0.666667  0.333333  0.483404  1
  Co  Co7  1  0.333333  0.666667  0.504086  1
  Co  Co8  1  0.333333  0.666667  0.004086  1
  Co  Co9  1  0.666667  0.333333  0.177636  1
  O  O10  1  0.367820  0.338231  0.088838  1
  O  O11  1  0.675594  0.685873  0.923947  1
  O  O12  1  0.927854  0.246871  0.243846  1
  O  O13  1  0.319018  0.072146  0.243846  1
  O  O14  1  0.970412  0.632180  0.088838  1
  O  O15  1  0.661769  0.632180  0.588838  1
  O  O16  1  0.753129  0.072146  0.743846  1
  O  O17  1  0.010280  0.324406  0.923947  1
  O  O18  1  0.010280  0.685873  0.423947  1
  O  O19  1  0.367820  0.029588  0.588838  1
  O  O20  1  0.319018  0.246871  0.743846  1
  O  O21  1  0.970412  0.338231  0.588838  1
  O  O22  1  0.753129  0.680982  0.243846  1
  O  O23  1  0.314127  0.989720  0.923947  1
  O  O24  1  0.661769  0.029588  0.088838  1
  O  O25  1  0.675594  0.989720  0.423947  1
  O  O26  1  0.314127  0.324406  0.423947  1
  O  O27  1  0.927854  0.680982  0.743846  1
