# generated using pymatgen
data_SrCaP2WO8
_symmetry_space_group_name_H-M   'P 1'
_cell_length_a   6.12668953
_cell_length_b   6.73383232
_cell_length_c   9.63375748
_cell_angle_alpha   107.28721727
_cell_angle_beta   106.25295648
_cell_angle_gamma   94.67243120
_symmetry_Int_Tables_number   1
_chemical_formula_structural   SrCaP2WO8
_chemical_formula_sum   'Sr2 Ca2 P4 W2 O16'
_cell_volume   358.40706214
_cell_formula_units_Z   2
loop_
 _symmetry_equiv_pos_site_id
 _symmetry_equiv_pos_as_xyz
  1  'x, y, z'
loop_
 _atom_site_type_symbol
 _atom_site_label
 _atom_site_symmetry_multiplicity
 _atom_site_fract_x
 _atom_site_fract_y
 _atom_site_fract_z
 _atom_site_occupancy
  Sr  Sr0  1  0.315672  0.800210  0.074296  1
  Sr  Sr1  1  0.684328  0.199790  0.925704  1
  Ca  Ca2  1  0.020496  0.420687  0.676651  1
  Ca  Ca3  1  0.979504  0.579313  0.323349  1
  P  P4  1  0.373939  0.395567  0.218741  1
  P  P5  1  0.626061  0.604433  0.781259  1
  P  P6  1  0.865673  0.017214  0.275599  1
  P  P7  1  0.134327  0.982786  0.724401  1
  W  W8  1  0.643471  0.848287  0.530347  1
  W  W9  1  0.356529  0.151713  0.469653  1
  O  O10  1  0.871134  0.606339  0.887652  1
  O  O11  1  0.571631  0.440905  0.155997  1
  O  O12  1  0.608835  0.810308  0.740398  1
  O  O13  1  0.914996  0.095805  0.716781  1
  O  O14  1  0.428369  0.559095  0.844003  1
  O  O15  1  0.044090  0.750609  0.606501  1
  O  O16  1  0.955910  0.249391  0.393499  1
  O  O17  1  0.259669  0.991936  0.886620  1
  O  O18  1  0.391165  0.189692  0.259602  1
  O  O19  1  0.740331  0.008064  0.113380  1
  O  O20  1  0.128866  0.393661  0.112348  1
  O  O21  1  0.390399  0.579376  0.370400  1
  O  O22  1  0.609601  0.420624  0.629600  1
  O  O23  1  0.710394  0.876002  0.325765  1
  O  O24  1  0.085003  0.904195  0.283219  1
  O  O25  1  0.289606  0.123998  0.674235  1
