# generated using pymatgen
data_CaTa2CoO7
_symmetry_space_group_name_H-M   'P 1'
_cell_length_a   7.16717002
_cell_length_b   11.80374188
_cell_length_c   15.14305341
_cell_angle_alpha   90.00000000
_cell_angle_beta   90.00000000
_cell_angle_gamma   102.04336799
_symmetry_Int_Tables_number   1
_chemical_formula_structural   CaTa2CoO7
_chemical_formula_sum   'Ca8 Ta16 Co8 O56'
_cell_volume   1252.89667521
_cell_formula_units_Z   8
loop_
 _symmetry_equiv_pos_site_id
 _symmetry_equiv_pos_as_xyz
  1  'x, y, z'
loop_
 _atom_site_type_symbol
 _atom_site_label
 _atom_site_symmetry_multiplicity
 _atom_site_fract_x
 _atom_site_fract_y
 _atom_site_fract_z
 _atom_site_occupancy
  Ca  Ca0  1  0.060070  0.729368  0.510313  1
  Ca  Ca1  1  0.313319  0.960694  0.871323  1
  Ca  Ca2  1  0.686681  0.539306  0.371323  1
  Ca  Ca3  1  0.686681  0.039306  0.128677  1
  Ca  Ca4  1  0.313319  0.460694  0.628677  1
  Ca  Ca5  1  0.060070  0.229368  0.989687  1
  Ca  Ca6  1  0.939930  0.270632  0.489687  1
  Ca  Ca7  1  0.939930  0.770632  0.010313  1
  Ta  Ta8  1  0.834863  0.977142  0.874838  1
  Ta  Ta9  1  0.422726  0.691683  0.015794  1
  Ta  Ta10  1  0.422726  0.191683  0.484206  1
  Ta  Ta11  1  0.577274  0.308317  0.984206  1
  Ta  Ta12  1  0.506288  0.798688  0.717380  1
  Ta  Ta13  1  0.493712  0.701312  0.217380  1
  Ta  Ta14  1  0.493712  0.201312  0.282620  1
  Ta  Ta15  1  0.506288  0.298688  0.782620  1
  Ta  Ta16  1  0.577274  0.808317  0.515794  1
  Ta  Ta17  1  0.871295  0.484128  0.140469  1
  Ta  Ta18  1  0.128705  0.015872  0.640469  1
  Ta  Ta19  1  0.128705  0.515872  0.859531  1
  Ta  Ta20  1  0.165137  0.522858  0.374838  1
  Ta  Ta21  1  0.834863  0.477142  0.625162  1
  Ta  Ta22  1  0.165137  0.022858  0.125162  1
  Ta  Ta23  1  0.871295  0.984128  0.359531  1
  Co  Co24  1  0.642939  0.079231  0.668713  1
  Co  Co25  1  0.357061  0.420769  0.168713  1
  Co  Co26  1  0.357061  0.920769  0.331287  1
  Co  Co27  1  0.642939  0.579231  0.831287  1
  Co  Co28  1  0.991887  0.243577  0.754544  1
  Co  Co29  1  0.008113  0.256423  0.254544  1
  Co  Co30  1  0.008113  0.756423  0.245456  1
  Co  Co31  1  0.991887  0.743577  0.745456  1
  O  O32  1  0.768006  0.961075  0.991581  1
  O  O33  1  0.231994  0.538925  0.491581  1
  O  O34  1  0.231994  0.038925  0.008419  1
  O  O35  1  0.768006  0.461075  0.508419  1
  O  O36  1  0.991370  0.871047  0.858765  1
  O  O37  1  0.008630  0.628953  0.358765  1
  O  O38  1  0.008630  0.128953  0.141235  1
  O  O39  1  0.991370  0.371047  0.641235  1
  O  O40  1  0.988505  0.122676  0.859868  1
  O  O41  1  0.011495  0.377324  0.359868  1
  O  O42  1  0.011495  0.877324  0.140132  1
  O  O43  1  0.988505  0.622676  0.640132  1
  O  O44  1  0.671261  0.956675  0.279320  1
  O  O45  1  0.328739  0.543325  0.779320  1
  O  O46  1  0.328739  0.043325  0.720680  1
  O  O47  1  0.671261  0.456675  0.220680  1
  O  O48  1  0.972914  0.141974  0.364216  1
  O  O49  1  0.027086  0.358026  0.864216  1
  O  O50  1  0.027086  0.858026  0.635784  1
  O  O51  1  0.972914  0.641974  0.135784  1
  O  O52  1  0.060681  0.899559  0.333041  1
  O  O53  1  0.371196  0.814485  0.442984  1
  O  O54  1  0.939319  0.600441  0.833041  1
  O  O55  1  0.060681  0.399559  0.166959  1
  O  O56  1  0.724082  0.705483  0.478390  1
  O  O57  1  0.275918  0.794517  0.978390  1
  O  O58  1  0.275918  0.294517  0.521610  1
  O  O59  1  0.724082  0.205483  0.021610  1
  O  O60  1  0.768074  0.945646  0.472721  1
  O  O61  1  0.231926  0.554354  0.972721  1
  O  O62  1  0.231926  0.054354  0.527279  1
  O  O63  1  0.768074  0.445646  0.027279  1
  O  O64  1  0.436326  0.206773  0.889503  1
  O  O65  1  0.563674  0.293227  0.389503  1
  O  O66  1  0.563674  0.793227  0.110497  1
  O  O67  1  0.436326  0.706773  0.610497  1
  O  O68  1  0.693945  0.220956  0.744591  1
  O  O69  1  0.306055  0.279044  0.244591  1
  O  O70  1  0.306055  0.779044  0.255409  1
  O  O71  1  0.693945  0.720956  0.755409  1
  O  O72  1  0.614345  0.444794  0.700827  1
  O  O73  1  0.385655  0.055206  0.200827  1
  O  O74  1  0.385655  0.555207  0.299173  1
  O  O75  1  0.614345  0.944793  0.799173  1
  O  O76  1  0.275997  0.285141  0.725016  1
  O  O77  1  0.724003  0.214859  0.225016  1
  O  O78  1  0.724003  0.714859  0.274984  1
  O  O79  1  0.275997  0.785141  0.774984  1
  O  O80  1  0.588683  0.415401  0.875897  1
  O  O81  1  0.411317  0.084599  0.375897  1
  O  O82  1  0.411317  0.584599  0.124103  1
  O  O83  1  0.588683  0.915401  0.624103  1
  O  O84  1  0.371196  0.314485  0.057016  1
  O  O85  1  0.628804  0.185515  0.557016  1
  O  O86  1  0.628804  0.685515  0.942984  1
  O  O87  1  0.939319  0.100441  0.666959  1
