# generated using pymatgen
data_Ca(SnO2)2
_symmetry_space_group_name_H-M   'P 1'
_cell_length_a   6.77817061
_cell_length_b   6.77816967
_cell_length_c   6.35571135
_cell_angle_alpha   62.04117245
_cell_angle_beta   62.04118538
_cell_angle_gamma   67.83921199
_symmetry_Int_Tables_number   1
_chemical_formula_structural   Ca(SnO2)2
_chemical_formula_sum   'Ca2 Sn4 O8'
_cell_volume   223.13498419
_cell_formula_units_Z   2
loop_
 _symmetry_equiv_pos_site_id
 _symmetry_equiv_pos_as_xyz
  1  'x, y, z'
loop_
 _atom_site_type_symbol
 _atom_site_label
 _atom_site_symmetry_multiplicity
 _atom_site_fract_x
 _atom_site_fract_y
 _atom_site_fract_z
 _atom_site_occupancy
  Ca  Ca0  1  0.125000  0.625000  0.625000  1
  Ca  Ca1  1  0.625000  0.125000  0.625000  1
  Sn  Sn2  1  0.001512  0.001512  0.998488  1
  Sn  Sn3  1  0.248488  0.248488  0.251512  1
  Sn  Sn4  1  0.625000  0.625000  0.125000  1
  Sn  Sn5  1  0.625000  0.625000  0.625000  1
  O  O6  1  0.395044  0.395044  0.362967  1
  O  O7  1  0.439053  0.807172  0.376888  1
  O  O8  1  0.395044  0.395044  0.846947  1
  O  O9  1  0.807172  0.439053  0.376888  1
  O  O10  1  0.442828  0.810947  0.873112  1
  O  O11  1  0.810947  0.442828  0.873112  1
  O  O12  1  0.854956  0.854956  0.403053  1
  O  O13  1  0.854956  0.854956  0.887033  1
