# generated using pymatgen
data_MgTiBi(PO4)3
_symmetry_space_group_name_H-M   'P 1'
_cell_length_a   8.40540258
_cell_length_b   8.40540197
_cell_length_c   8.40540263
_cell_angle_alpha   64.58771065
_cell_angle_beta   64.58771503
_cell_angle_gamma   64.58772137
_symmetry_Int_Tables_number   1
_chemical_formula_structural   MgTiBi(PO4)3
_chemical_formula_sum   'Mg2 Ti2 Bi2 P6 O24'
_cell_volume   462.13261537
_cell_formula_units_Z   2
loop_
 _symmetry_equiv_pos_site_id
 _symmetry_equiv_pos_as_xyz
  1  'x, y, z'
loop_
 _atom_site_type_symbol
 _atom_site_label
 _atom_site_symmetry_multiplicity
 _atom_site_fract_x
 _atom_site_fract_y
 _atom_site_fract_z
 _atom_site_occupancy
  Mg  Mg0  1  0.993222  0.993222  0.993222  1
  Mg  Mg1  1  0.493222  0.493222  0.493222  1
  Ti  Ti2  1  0.149063  0.149063  0.149063  1
  Ti  Ti3  1  0.649063  0.649063  0.649063  1
  Bi  Bi4  1  0.332165  0.332165  0.332165  1
  Bi  Bi5  1  0.832165  0.832165  0.832165  1
  P  P6  1  0.065447  0.428923  0.759873  1
  P  P7  1  0.428923  0.759873  0.065447  1
  P  P8  1  0.759873  0.065447  0.428923  1
  P  P9  1  0.259873  0.928923  0.565447  1
  P  P10  1  0.565447  0.259873  0.928923  1
  P  P11  1  0.928923  0.565447  0.259873  1
  O  O12  1  0.058063  0.563556  0.342911  1
  O  O13  1  0.342911  0.058063  0.563556  1
  O  O14  1  0.068969  0.235516  0.906363  1
  O  O15  1  0.563556  0.342911  0.058063  1
  O  O16  1  0.063556  0.558063  0.842911  1
  O  O17  1  0.243310  0.417340  0.593194  1
  O  O18  1  0.235516  0.906363  0.068969  1
  O  O19  1  0.417340  0.593194  0.243310  1
  O  O20  1  0.206725  0.006835  0.378526  1
  O  O21  1  0.593194  0.243310  0.417340  1
  O  O22  1  0.093194  0.917340  0.743310  1
  O  O23  1  0.378526  0.206725  0.006835  1
  O  O24  1  0.558063  0.842911  0.063556  1
  O  O25  1  0.906363  0.068969  0.235516  1
  O  O26  1  0.406363  0.735516  0.568969  1
  O  O27  1  0.842911  0.063556  0.558063  1
  O  O28  1  0.568969  0.406363  0.735516  1
  O  O29  1  0.743310  0.093194  0.917340  1
  O  O30  1  0.735516  0.568969  0.406363  1
  O  O31  1  0.006835  0.378526  0.206725  1
  O  O32  1  0.506835  0.706724  0.878526  1
  O  O33  1  0.917340  0.743310  0.093194  1
  O  O34  1  0.706724  0.878526  0.506835  1
  O  O35  1  0.878526  0.506835  0.706724  1
