# generated using pymatgen
data_Zn(CuN)2
_symmetry_space_group_name_H-M   'P 1'
_cell_length_a   3.55345411
_cell_length_b   3.54914308
_cell_length_c   5.34274245
_cell_angle_alpha   90.00042362
_cell_angle_beta   90.00034331
_cell_angle_gamma   90.00022474
_symmetry_Int_Tables_number   1
_chemical_formula_structural   Zn(CuN)2
_chemical_formula_sum   'Zn1 Cu2 N2'
_cell_volume   67.38115613
_cell_formula_units_Z   1
loop_
 _symmetry_equiv_pos_site_id
 _symmetry_equiv_pos_as_xyz
  1  'x, y, z'
loop_
 _atom_site_type_symbol
 _atom_site_label
 _atom_site_symmetry_multiplicity
 _atom_site_fract_x
 _atom_site_fract_y
 _atom_site_fract_z
 _atom_site_occupancy
  Zn  Zn0  1  0.999998  0.000000  0.250180  1
  Cu  Cu1  1  0.500001  0.499998  0.971853  1
  Cu  Cu2  1  0.499998  0.500002  0.528453  1
  N  N3  1  0.500000  0.000001  0.458919  1
  N  N4  1  0.000002  0.499999  0.040595  1
