# generated using pymatgen
data_LaTaZnCrO6
_symmetry_space_group_name_H-M   'P 1'
_cell_length_a   5.42284488
_cell_length_b   5.72504833
_cell_length_c   8.48532330
_cell_angle_alpha   90.00000000
_cell_angle_beta   89.15895917
_cell_angle_gamma   90.00000000
_symmetry_Int_Tables_number   1
_chemical_formula_structural   LaTaZnCrO6
_chemical_formula_sum   'La2 Ta2 Zn2 Cr2 O12'
_cell_volume   263.40738238
_cell_formula_units_Z   2
loop_
 _symmetry_equiv_pos_site_id
 _symmetry_equiv_pos_as_xyz
  1  'x, y, z'
loop_
 _atom_site_type_symbol
 _atom_site_label
 _atom_site_symmetry_multiplicity
 _atom_site_fract_x
 _atom_site_fract_y
 _atom_site_fract_z
 _atom_site_occupancy
  La  La0  1  0.027855  0.947382  0.752405  1
  La  La1  1  0.527855  0.552618  0.252405  1
  Ta  Ta2  1  0.499692  0.028267  0.002538  1
  Ta  Ta3  1  0.999692  0.471733  0.502538  1
  Zn  Zn4  1  0.508120  0.604063  0.749061  1
  Zn  Zn5  1  0.008120  0.895937  0.249061  1
  Cr  Cr6  1  0.505370  0.007700  0.499245  1
  Cr  Cr7  1  0.005370  0.492300  0.999245  1
  O  O8  1  0.101279  0.503656  0.279494  1
  O  O9  1  0.206714  0.198876  0.945338  1
  O  O10  1  0.195482  0.206321  0.555013  1
  O  O11  1  0.304265  0.703451  0.934219  1
  O  O12  1  0.294782  0.697169  0.564477  1
  O  O13  1  0.356438  0.959634  0.218208  1
  O  O14  1  0.601279  0.996344  0.779494  1
  O  O15  1  0.706714  0.301124  0.445338  1
  O  O16  1  0.695482  0.293679  0.055013  1
  O  O17  1  0.804265  0.796549  0.434219  1
  O  O18  1  0.794782  0.802831  0.064477  1
  O  O19  1  0.856438  0.540366  0.718208  1
