# generated using pymatgen
data_ZnCr2O4
_symmetry_space_group_name_H-M   'P 1'
_cell_length_a   2.98628224
_cell_length_b   7.35798275
_cell_length_c   7.51140542
_cell_angle_alpha   79.16839537
_cell_angle_beta   78.52258645
_cell_angle_gamma   78.30849540
_symmetry_Int_Tables_number   1
_chemical_formula_structural   ZnCr2O4
_chemical_formula_sum   'Zn2 Cr4 O8'
_cell_volume   156.50733302
_cell_formula_units_Z   2
loop_
 _symmetry_equiv_pos_site_id
 _symmetry_equiv_pos_as_xyz
  1  'x, y, z'
loop_
 _atom_site_type_symbol
 _atom_site_label
 _atom_site_symmetry_multiplicity
 _atom_site_fract_x
 _atom_site_fract_y
 _atom_site_fract_z
 _atom_site_occupancy
  Zn  Zn0  1  0.328726  0.142731  0.200712  1
  Zn  Zn1  1  0.664415  0.834593  0.832329  1
  Cr  Cr2  1  0.630873  0.176860  0.558945  1
  Cr  Cr3  1  0.137716  0.512256  0.203225  1
  Cr  Cr4  1  0.849751  0.465207  0.831362  1
  Cr  Cr5  1  0.358142  0.801357  0.475135  1
  O  O6  1  0.853623  0.670831  0.613552  1
  O  O7  1  0.457197  0.316021  0.766335  1
  O  O8  1  0.530453  0.660904  0.268871  1
  O  O9  1  0.134785  0.307035  0.420743  1
  O  O10  1  0.162684  0.990795  0.678993  1
  O  O11  1  0.782916  0.334864  0.095902  1
  O  O12  1  0.827460  0.987368  0.354835  1
  O  O13  1  0.207065  0.642238  0.938363  1
