# generated using pymatgen
data_SrMgNi(PO4)2
_symmetry_space_group_name_H-M   'P 1'
_cell_length_a   5.50701432
_cell_length_b   6.91385107
_cell_length_c   9.29782557
_cell_angle_alpha   111.11400281
_cell_angle_beta   101.18360428
_cell_angle_gamma   97.98988570
_symmetry_Int_Tables_number   1
_chemical_formula_structural   SrMgNi(PO4)2
_chemical_formula_sum   'Sr2 Mg2 Ni2 P4 O16'
_cell_volume   315.42359207
_cell_formula_units_Z   2
loop_
 _symmetry_equiv_pos_site_id
 _symmetry_equiv_pos_as_xyz
  1  'x, y, z'
loop_
 _atom_site_type_symbol
 _atom_site_label
 _atom_site_symmetry_multiplicity
 _atom_site_fract_x
 _atom_site_fract_y
 _atom_site_fract_z
 _atom_site_occupancy
  Sr  Sr0  1  0.250733  0.802125  0.051697  1
  Sr  Sr1  1  0.749267  0.197875  0.948303  1
  Mg  Mg2  1  0.984829  0.388329  0.655478  1
  Mg  Mg3  1  0.015171  0.611671  0.344522  1
  Ni  Ni4  1  0.640921  0.853322  0.560519  1
  Ni  Ni5  1  0.359079  0.146678  0.439481  1
  P  P6  1  0.397386  0.425518  0.238786  1
  P  P7  1  0.602614  0.574482  0.761214  1
  P  P8  1  0.844209  0.026317  0.303753  1
  P  P9  1  0.155791  0.973683  0.696247  1
  O  O10  1  0.820349  0.547215  0.882323  1
  O  O11  1  0.660920  0.472669  0.207172  1
  O  O12  1  0.662022  0.800785  0.764103  1
  O  O13  1  0.955711  0.117311  0.695757  1
  O  O14  1  0.339080  0.527331  0.792828  1
  O  O15  1  0.998483  0.745417  0.573896  1
  O  O16  1  0.001517  0.254583  0.426104  1
  O  O17  1  0.259402  0.994887  0.866330  1
  O  O18  1  0.337978  0.199215  0.235897  1
  O  O19  1  0.740598  0.005113  0.133670  1
  O  O20  1  0.179651  0.452785  0.117677  1
  O  O21  1  0.382956  0.592373  0.402884  1
  O  O22  1  0.617044  0.407627  0.597116  1
  O  O23  1  0.621386  0.954545  0.369522  1
  O  O24  1  0.044289  0.882689  0.304243  1
  O  O25  1  0.378614  0.045455  0.630478  1
