# generated using pymatgen
data_Y4Be6Fe3(SiO5)6
_symmetry_space_group_name_H-M   'P 1'
_cell_length_a   14.06178300
_cell_length_b   7.74987373
_cell_length_c   10.14519841
_cell_angle_alpha   89.86869930
_cell_angle_beta   90.59428241
_cell_angle_gamma   89.95347977
_symmetry_Int_Tables_number   1
_chemical_formula_structural   Y4Be6Fe3(SiO5)6
_chemical_formula_sum   'Y8 Be12 Fe6 Si12 O60'
_cell_volume   1105.53096164
_cell_formula_units_Z   2
loop_
 _symmetry_equiv_pos_site_id
 _symmetry_equiv_pos_as_xyz
  1  'x, y, z'
loop_
 _atom_site_type_symbol
 _atom_site_label
 _atom_site_symmetry_multiplicity
 _atom_site_fract_x
 _atom_site_fract_y
 _atom_site_fract_z
 _atom_site_occupancy
  Y  Y0  1  0.337726  0.395823  0.831058  1
  Y  Y1  1  0.997903  0.396644  0.831828  1
  Y  Y2  1  0.329595  0.893069  0.666052  1
  Y  Y3  1  0.666322  0.892637  0.669106  1
  Y  Y4  1  0.329443  0.601518  0.166852  1
  Y  Y5  1  0.662597  0.600024  0.170891  1
  Y  Y6  1  0.665504  0.104560  0.333766  1
  Y  Y7  1  0.006353  0.104938  0.329212  1
  Be  Be8  1  0.147399  0.094603  0.845791  1
  Be  Be9  1  0.486396  0.094785  0.842256  1
  Be  Be10  1  0.817471  0.082659  0.843458  1
  Be  Be11  1  0.182168  0.591831  0.650298  1
  Be  Be12  1  0.518904  0.585646  0.660826  1
  Be  Be13  1  0.848447  0.592006  0.657477  1
  Be  Be14  1  0.184764  0.901230  0.151130  1
  Be  Be15  1  0.511835  0.913957  0.157609  1
  Be  Be16  1  0.851001  0.914477  0.159553  1
  Be  Be17  1  0.150594  0.408549  0.345981  1
  Be  Be18  1  0.482174  0.410244  0.342043  1
  Be  Be19  1  0.816920  0.411655  0.344393  1
  Fe  Fe20  1  0.001986  0.000508  0.999064  1
  Fe  Fe21  1  0.332548  0.996356  0.002053  1
  Fe  Fe22  1  0.665834  0.003121  0.997421  1
  Fe  Fe23  1  0.997643  0.505545  0.499771  1
  Fe  Fe24  1  0.336172  0.492276  0.497836  1
  Fe  Fe25  1  0.666482  0.499307  0.506893  1
  Si  Si26  1  0.168367  0.230593  0.594863  1
  Si  Si27  1  0.507833  0.233821  0.583732  1
  Si  Si28  1  0.839340  0.218590  0.578749  1
  Si  Si29  1  0.158095  0.728569  0.904962  1
  Si  Si30  1  0.493909  0.733423  0.914597  1
  Si  Si31  1  0.833689  0.723340  0.922722  1
  Si  Si32  1  0.162531  0.762867  0.405117  1
  Si  Si33  1  0.492134  0.778267  0.422731  1
  Si  Si34  1  0.828084  0.776585  0.416373  1
  Si  Si35  1  0.177203  0.264236  0.087643  1
  Si  Si36  1  0.506168  0.286774  0.086073  1
  Si  Si37  1  0.832411  0.268004  0.081422  1
  O  O38  1  0.240076  0.399435  0.633547  1
  O  O39  1  0.571815  0.402056  0.633628  1
  O  O40  1  0.899567  0.390162  0.635067  1
  O  O41  1  0.098739  0.907210  0.869914  1
  O  O42  1  0.424968  0.904690  0.868279  1
  O  O43  1  0.763608  0.881748  0.863966  1
  O  O44  1  0.092839  0.592580  0.377975  1
  O  O45  1  0.430180  0.610091  0.364816  1
  O  O46  1  0.765037  0.603594  0.358971  1
  O  O47  1  0.241317  0.087865  0.124271  1
  O  O48  1  0.562954  0.106994  0.139501  1
  O  O49  1  0.906018  0.114987  0.138500  1
  O  O50  1  0.069787  0.559624  0.648334  1
  O  O51  1  0.403645  0.572793  0.658139  1
  O  O52  1  0.736944  0.614483  0.639279  1
  O  O53  1  0.265337  0.092876  0.850630  1
  O  O54  1  0.594542  0.050807  0.841965  1
  O  O55  1  0.930288  0.105015  0.866207  1
  O  O56  1  0.262165  0.444757  0.346021  1
  O  O57  1  0.597673  0.411998  0.345481  1
  O  O58  1  0.928999  0.396372  0.364384  1
  O  O59  1  0.232849  0.787245  0.025781  1
  O  O60  1  0.566950  0.796558  0.037417  1
  O  O61  1  0.903400  0.821990  0.030546  1
  O  O62  1  0.253484  0.404176  0.031396  1
  O  O63  1  0.586577  0.422100  0.046133  1
  O  O64  1  0.901264  0.415161  0.018038  1
  O  O65  1  0.095976  0.924626  0.439915  1
  O  O66  1  0.421709  0.902452  0.499466  1
  O  O67  1  0.744496  0.909789  0.464824  1
  O  O68  1  0.104740  0.202732  0.725284  1
  O  O69  1  0.440078  0.175264  0.708829  1
  O  O70  1  0.782319  0.125860  0.697055  1
  O  O71  1  0.240726  0.075683  0.563712  1
  O  O72  1  0.585160  0.092345  0.531539  1
  O  O73  1  0.912597  0.096808  0.500677  1
  O  O74  1  0.101807  0.292384  0.468921  1
  O  O75  1  0.435608  0.306526  0.466134  1
  O  O76  1  0.760801  0.300108  0.468342  1
  O  O77  1  0.087461  0.573998  0.938233  1
  O  O78  1  0.416944  0.587613  0.957659  1
  O  O79  1  0.764704  0.595220  0.006846  1
  O  O80  1  0.233820  0.704431  0.531378  1
  O  O81  1  0.570074  0.698632  0.531344  1
  O  O82  1  0.898706  0.691984  0.531094  1
  O  O83  1  0.098567  0.205253  0.972010  1
  O  O84  1  0.437313  0.210380  0.963747  1
  O  O85  1  0.763157  0.183140  0.967301  1
  O  O86  1  0.116421  0.308635  0.218346  1
  O  O87  1  0.437720  0.365060  0.200128  1
  O  O88  1  0.769950  0.328197  0.210333  1
  O  O89  1  0.224614  0.791066  0.272753  1
  O  O90  1  0.555874  0.847801  0.297467  1
  O  O91  1  0.891028  0.856406  0.298164  1
  O  O92  1  0.229640  0.676731  0.782162  1
  O  O93  1  0.555905  0.696374  0.783324  1
  O  O94  1  0.888299  0.632526  0.802001  1
  O  O95  1  0.072572  0.940204  0.147892  1
  O  O96  1  0.401960  0.883766  0.134421  1
  O  O97  1  0.734286  0.927599  0.158909  1
