# generated using pymatgen
data_YBi3F15
_symmetry_space_group_name_H-M   'P 1'
_cell_length_a   10.88849969
_cell_length_b   5.96275465
_cell_length_c   11.65615294
_cell_angle_alpha   90.00000000
_cell_angle_beta   90.00000000
_cell_angle_gamma   109.58585159
_symmetry_Int_Tables_number   1
_chemical_formula_structural   YBi3F15
_chemical_formula_sum   'Y2 Bi6 F30'
_cell_volume   712.99384690
_cell_formula_units_Z   2
loop_
 _symmetry_equiv_pos_site_id
 _symmetry_equiv_pos_as_xyz
  1  'x, y, z'
loop_
 _atom_site_type_symbol
 _atom_site_label
 _atom_site_symmetry_multiplicity
 _atom_site_fract_x
 _atom_site_fract_y
 _atom_site_fract_z
 _atom_site_occupancy
  Y  Y0  1  0.817928  0.402199  0.250000  1
  Y  Y1  1  0.515405  0.597801  0.750000  1
  Bi  Bi2  1  0.166667  0.000000  0.500000  1
  Bi  Bi3  1  0.507662  0.980417  0.438235  1
  Bi  Bi4  1  0.825671  0.019583  0.561765  1
  Bi  Bi5  1  0.166667  0.000000  0.000000  1
  Bi  Bi6  1  0.507662  0.980417  0.061765  1
  Bi  Bi7  1  0.825671  0.019583  0.938235  1
  F  F8  1  0.015602  0.677445  0.250000  1
  F  F9  1  0.488666  0.870086  0.250000  1
  F  F10  1  0.860572  0.788088  0.250000  1
  F  F11  1  0.317731  0.322555  0.750000  1
  F  F12  1  0.472762  0.211912  0.750000  1
  F  F13  1  0.844667  0.129914  0.750000  1
  F  F14  1  0.081101  0.186914  0.603587  1
  F  F15  1  0.363290  0.198096  0.525436  1
  F  F16  1  0.659413  0.151329  0.580033  1
  F  F17  1  0.252233  0.813086  0.396413  1
  F  F18  1  0.673920  0.848672  0.419967  1
  F  F19  1  0.970043  0.801904  0.474564  1
  F  F20  1  0.165795  0.771110  0.872499  1
  F  F21  1  0.450891  0.731003  0.903597  1
  F  F22  1  0.691909  0.683643  0.863463  1
  F  F23  1  0.167539  0.228890  0.127501  1
  F  F24  1  0.641424  0.316357  0.136537  1
  F  F25  1  0.882442  0.268997  0.096403  1
  F  F26  1  0.167539  0.228890  0.372499  1
  F  F27  1  0.641424  0.316357  0.363463  1
  F  F28  1  0.882442  0.268997  0.403597  1
  F  F29  1  0.165795  0.771110  0.627501  1
  F  F30  1  0.450891  0.731003  0.596403  1
  F  F31  1  0.691909  0.683643  0.636537  1
  F  F32  1  0.081101  0.186914  0.896413  1
  F  F33  1  0.363290  0.198096  0.974564  1
  F  F34  1  0.659413  0.151329  0.919967  1
  F  F35  1  0.252233  0.813086  0.103587  1
  F  F36  1  0.673920  0.848672  0.080033  1
  F  F37  1  0.970043  0.801904  0.025436  1
