# generated using pymatgen
data_Si2SbO6
_symmetry_space_group_name_H-M   'P 1'
_cell_length_a   5.49177440
_cell_length_b   6.83553936
_cell_length_c   6.83553905
_cell_angle_alpha   85.72499825
_cell_angle_beta   75.37743960
_cell_angle_gamma   75.37743962
_symmetry_Int_Tables_number   1
_chemical_formula_structural   Si2SbO6
_chemical_formula_sum   'Si4 Sb2 O12'
_cell_volume   240.23143607
_cell_formula_units_Z   2
loop_
 _symmetry_equiv_pos_site_id
 _symmetry_equiv_pos_as_xyz
  1  'x, y, z'
loop_
 _atom_site_type_symbol
 _atom_site_label
 _atom_site_symmetry_multiplicity
 _atom_site_fract_x
 _atom_site_fract_y
 _atom_site_fract_z
 _atom_site_occupancy
  Si  Si0  1  0.240090  0.222181  0.381581  1
  Si  Si1  1  0.259912  0.618418  0.777817  1
  Si  Si2  1  0.740090  0.381581  0.222181  1
  Si  Si3  1  0.759914  0.777817  0.618418  1
  Sb  Sb4  1  0.250001  0.120762  0.879236  1
  Sb  Sb5  1  0.750001  0.879237  0.120761  1
  O  O6  1  0.468638  0.342169  0.366551  1
  O  O7  1  0.031368  0.633452  0.657827  1
  O  O8  1  0.531369  0.657827  0.633453  1
  O  O9  1  0.968637  0.366552  0.342168  1
  O  O10  1  0.182823  0.113909  0.602397  1
  O  O11  1  0.317166  0.397605  0.886096  1
  O  O12  1  0.817166  0.886097  0.397606  1
  O  O13  1  0.682822  0.602397  0.113910  1
  O  O14  1  0.853402  0.192325  0.052915  1
  O  O15  1  0.646597  0.947082  0.807677  1
  O  O16  1  0.353401  0.052915  0.192326  1
  O  O17  1  0.146598  0.807678  0.947082  1
