# generated using pymatgen
data_TaZn2MoO6
_symmetry_space_group_name_H-M   'P 1'
_cell_length_a   5.40205372
_cell_length_b   5.39094854
_cell_length_c   7.85846770
_cell_angle_alpha   90.00000000
_cell_angle_beta   90.00000000
_cell_angle_gamma   88.31632786
_symmetry_Int_Tables_number   1
_chemical_formula_structural   TaZn2MoO6
_chemical_formula_sum   'Ta2 Zn4 Mo2 O12'
_cell_volume   228.75701484
_cell_formula_units_Z   2
loop_
 _symmetry_equiv_pos_site_id
 _symmetry_equiv_pos_as_xyz
  1  'x, y, z'
loop_
 _atom_site_type_symbol
 _atom_site_label
 _atom_site_symmetry_multiplicity
 _atom_site_fract_x
 _atom_site_fract_y
 _atom_site_fract_z
 _atom_site_occupancy
  Ta  Ta0  1  0.000000  0.500000  0.000000  1
  Ta  Ta1  1  0.000000  0.500000  0.500000  1
  Zn  Zn2  1  0.979887  0.984605  0.250000  1
  Zn  Zn3  1  0.505851  0.468998  0.250000  1
  Zn  Zn4  1  0.494149  0.531002  0.750000  1
  Zn  Zn5  1  0.020113  0.015395  0.750000  1
  Mo  Mo6  1  0.500000  0.000000  0.000000  1
  Mo  Mo7  1  0.500000  0.000000  0.500000  1
  O  O8  1  0.847059  0.819413  0.567431  1
  O  O9  1  0.312613  0.661086  0.433917  1
  O  O10  1  0.152941  0.180587  0.432569  1
  O  O11  1  0.687387  0.338914  0.933917  1
  O  O12  1  0.121481  0.423964  0.750000  1
  O  O13  1  0.687387  0.338914  0.566083  1
  O  O14  1  0.312613  0.661086  0.066083  1
  O  O15  1  0.847059  0.819413  0.932569  1
  O  O16  1  0.622910  0.103301  0.250000  1
  O  O17  1  0.152941  0.180587  0.067431  1
  O  O18  1  0.377090  0.896699  0.750000  1
  O  O19  1  0.878519  0.576036  0.250000  1
