# generated using pymatgen
data_YWO3
_symmetry_space_group_name_H-M   'P 1'
_cell_length_a   6.21515385
_cell_length_b   6.21515351
_cell_length_c   12.63184862
_cell_angle_alpha   90.00000000
_cell_angle_beta   90.00000000
_cell_angle_gamma   120.00000185
_symmetry_Int_Tables_number   1
_chemical_formula_structural   YWO3
_chemical_formula_sum   'Y6 W6 O18'
_cell_volume   422.57254764
_cell_formula_units_Z   6
loop_
 _symmetry_equiv_pos_site_id
 _symmetry_equiv_pos_as_xyz
  1  'x, y, z'
loop_
 _atom_site_type_symbol
 _atom_site_label
 _atom_site_symmetry_multiplicity
 _atom_site_fract_x
 _atom_site_fract_y
 _atom_site_fract_z
 _atom_site_occupancy
  Y  Y0  1  0.666667  0.333333  0.236230  1
  Y  Y1  1  0.333333  0.666667  0.736230  1
  Y  Y2  1  0.666667  0.333333  0.736230  1
  Y  Y3  1  0.333333  0.666667  0.236230  1
  Y  Y4  1  0.000000  0.000000  0.770282  1
  Y  Y5  1  0.000000  0.000000  0.270282  1
  W  W6  1  0.665592  0.000000  0.500356  1
  W  W7  1  0.665592  0.665592  0.000356  1
  W  W8  1  0.000000  0.334408  0.000356  1
  W  W9  1  1.000000  0.665592  0.500356  1
  W  W10  1  0.334408  0.334408  0.500356  1
  W  W11  1  0.334408  0.000000  0.000356  1
  O  O12  1  0.666667  0.333333  0.027193  1
  O  O13  1  0.333333  0.666667  0.527193  1
  O  O14  1  0.666667  0.333333  0.527193  1
  O  O15  1  0.333333  0.666667  0.027193  1
  O  O16  1  0.000000  0.000000  0.972700  1
  O  O17  1  0.000000  0.000000  0.472700  1
  O  O18  1  0.357340  0.000000  0.831906  1
  O  O19  1  0.357340  0.357340  0.331906  1
  O  O20  1  0.000000  0.642660  0.331906  1
  O  O21  1  1.000000  0.357340  0.831906  1
  O  O22  1  0.642660  0.642660  0.831906  1
  O  O23  1  0.642660  0.000000  0.331906  1
  O  O24  1  0.308663  0.000000  0.169462  1
  O  O25  1  0.308663  0.308663  0.669462  1
  O  O26  1  1.000000  0.691337  0.669462  1
  O  O27  1  0.000000  0.308663  0.169462  1
  O  O28  1  0.691337  0.691337  0.169462  1
  O  O29  1  0.691337  0.000000  0.669462  1
