# generated using pymatgen
data_LaCrSbO6
_symmetry_space_group_name_H-M   'P 1'
_cell_length_a   5.51392979
_cell_length_b   5.48468740
_cell_length_c   5.47748757
_cell_angle_alpha   60.20553612
_cell_angle_beta   119.45894270
_cell_angle_gamma   89.79729113
_symmetry_Int_Tables_number   1
_chemical_formula_structural   LaCrSbO6
_chemical_formula_sum   'La1 Cr1 Sb1 O6'
_cell_volume   118.23961737
_cell_formula_units_Z   1
loop_
 _symmetry_equiv_pos_site_id
 _symmetry_equiv_pos_as_xyz
  1  'x, y, z'
loop_
 _atom_site_type_symbol
 _atom_site_label
 _atom_site_symmetry_multiplicity
 _atom_site_fract_x
 _atom_site_fract_y
 _atom_site_fract_z
 _atom_site_occupancy
  La  La0  1  0.759274  0.257675  0.500003  1
  Cr  Cr1  1  0.004422  0.512040  0.995403  1
  Sb  Sb2  1  0.504565  0.009056  0.001060  1
  O  O3  1  0.327831  0.253971  0.502604  1
  O  O4  1  0.203964  0.300408  0.923252  1
  O  O5  1  0.782997  0.703434  0.079285  1
  O  O6  1  0.199675  0.801098  0.933783  1
  O  O7  1  0.787640  0.233193  0.065507  1
  O  O8  1  0.689870  0.770535  0.499516  1
