# generated using pymatgen
data_MgWO2
_symmetry_space_group_name_H-M   'P 1'
_cell_length_a   2.95949274
_cell_length_b   8.13823899
_cell_length_c   9.22124695
_cell_angle_alpha   81.15756389
_cell_angle_beta   65.55380430
_cell_angle_gamma   75.30806419
_symmetry_Int_Tables_number   1
_chemical_formula_structural   MgWO2
_chemical_formula_sum   'Mg4 W4 O8'
_cell_volume   195.27284462
_cell_formula_units_Z   4
loop_
 _symmetry_equiv_pos_site_id
 _symmetry_equiv_pos_as_xyz
  1  'x, y, z'
loop_
 _atom_site_type_symbol
 _atom_site_label
 _atom_site_symmetry_multiplicity
 _atom_site_fract_x
 _atom_site_fract_y
 _atom_site_fract_z
 _atom_site_occupancy
  Mg  Mg0  1  -0.000181  0.007755  0.328423  1
  Mg  Mg1  1  0.757551  0.949071  0.754357  1
  Mg  Mg2  1  0.904432  0.690209  0.082364  1
  Mg  Mg3  1  0.770410  0.309859  0.988001  1
  W  W4  1  0.723591  0.308109  0.621572  1
  W  W5  1  0.309732  0.379369  0.316556  1
  W  W6  1  0.744431  0.601338  0.701780  1
  W  W7  1  0.614720  0.659456  0.450278  1
  O  O8  1  0.863420  0.834339  0.549172  1
  O  O9  1  0.366340  0.417026  0.847103  1
  O  O10  1  0.483351  0.529206  0.107708  1
  O  O11  1  0.239135  0.142322  0.441133  1
  O  O12  1  0.142519  0.141106  0.755159  1
  O  O13  1  0.109978  0.236070  0.165595  1
  O  O14  1  0.714629  0.844013  0.257627  1
  O  O15  1  0.224216  0.790086  0.858788  1
