# generated using pymatgen
data_BaAlCu4O7
_symmetry_space_group_name_H-M   'P 1'
_cell_length_a   6.00793544
_cell_length_b   6.00850610
_cell_length_c   9.85863575
_cell_angle_alpha   90.01224664
_cell_angle_beta   89.97021344
_cell_angle_gamma   119.99476784
_symmetry_Int_Tables_number   1
_chemical_formula_structural   BaAlCu4O7
_chemical_formula_sum   'Ba2 Al2 Cu8 O14'
_cell_volume   308.22087703
_cell_formula_units_Z   2
loop_
 _symmetry_equiv_pos_site_id
 _symmetry_equiv_pos_as_xyz
  1  'x, y, z'
loop_
 _atom_site_type_symbol
 _atom_site_label
 _atom_site_symmetry_multiplicity
 _atom_site_fract_x
 _atom_site_fract_y
 _atom_site_fract_z
 _atom_site_occupancy
  Ba  Ba0  1  0.666815  0.333349  0.512151  1
  Ba  Ba1  1  0.333383  0.666768  0.011017  1
  Al  Al2  1  0.666813  0.333499  0.882727  1
  Al  Al3  1  0.333173  0.666657  0.381744  1
  Cu  Cu4  1  0.820885  0.179089  0.194988  1
  Cu  Cu5  1  0.642722  0.821356  0.693933  1
  Cu  Cu6  1  0.178801  0.357229  0.694019  1
  Cu  Cu7  1  0.820632  0.641273  0.194940  1
  Cu  Cu8  1  0.358442  0.179199  0.195099  1
  Cu  Cu9  1  0.178824  0.821459  0.693991  1
  Cu  Cu10  1  0.999809  0.000033  0.440020  1
  Cu  Cu11  1  0.000079  0.000073  0.941466  1
  O  O12  1  0.820199  0.179910  0.993612  1
  O  O13  1  0.640729  0.820312  0.493328  1
  O  O14  1  0.179462  0.359024  0.493300  1
  O  O15  1  0.820181  0.640330  0.993676  1
  O  O16  1  0.359677  0.179885  0.993737  1
  O  O17  1  0.179304  0.820507  0.493443  1
  O  O18  1  0.999930  0.999854  0.746323  1
  O  O19  1  0.999896  0.999746  0.243676  1
  O  O20  1  0.481091  0.518795  0.262680  1
  O  O21  1  0.964204  0.482145  0.764039  1
  O  O22  1  0.518072  0.036058  0.764080  1
  O  O23  1  0.481308  0.962625  0.262808  1
  O  O24  1  0.518096  0.482123  0.764308  1
  O  O25  1  0.037478  0.518705  0.262889  1
