# generated using pymatgen
data_MgCo2O5
_symmetry_space_group_name_H-M   'P 1'
_cell_length_a   3.20246419
_cell_length_b   4.88992934
_cell_length_c   11.38237968
_cell_angle_alpha   89.87627380
_cell_angle_beta   90.00013473
_cell_angle_gamma   90.00167796
_symmetry_Int_Tables_number   1
_chemical_formula_structural   MgCo2O5
_chemical_formula_sum   'Mg2 Co4 O10'
_cell_volume   178.24564238
_cell_formula_units_Z   2
loop_
 _symmetry_equiv_pos_site_id
 _symmetry_equiv_pos_as_xyz
  1  'x, y, z'
loop_
 _atom_site_type_symbol
 _atom_site_label
 _atom_site_symmetry_multiplicity
 _atom_site_fract_x
 _atom_site_fract_y
 _atom_site_fract_z
 _atom_site_occupancy
  Mg  Mg0  1  0.750000  0.882891  0.250355  1
  Mg  Mg1  1  0.249999  0.117599  0.749551  1
  Co  Co2  1  0.250004  0.417782  0.100416  1
  Co  Co3  1  0.749992  0.582213  0.899394  1
  Co  Co4  1  0.749993  0.582678  0.600487  1
  Co  Co5  1  0.250001  0.417220  0.399707  1
  O  O6  1  0.750003  0.416498  0.750017  1
  O  O7  1  0.249999  0.583020  0.249979  1
  O  O8  1  0.749999  0.625741  0.065664  1
  O  O9  1  0.250000  0.374789  0.934103  1
  O  O10  1  0.749999  0.625385  0.433997  1
  O  O11  1  0.250001  0.374876  0.566273  1
  O  O12  1  0.249995  0.086766  0.356388  1
  O  O13  1  0.750006  0.912794  0.644196  1
  O  O14  1  0.750000  0.912428  0.855262  1
  O  O15  1  0.249999  0.087320  0.144210  1
