# generated using pymatgen
data_LaZnFeWO6
_symmetry_space_group_name_H-M   'P 1'
_cell_length_a   5.91970978
_cell_length_b   5.55825109
_cell_length_c   7.84341021
_cell_angle_alpha   89.34752353
_cell_angle_beta   90.00000000
_cell_angle_gamma   90.00000000
_symmetry_Int_Tables_number   1
_chemical_formula_structural   LaZnFeWO6
_chemical_formula_sum   'La2 Zn2 Fe2 W2 O12'
_cell_volume   258.05682248
_cell_formula_units_Z   2
loop_
 _symmetry_equiv_pos_site_id
 _symmetry_equiv_pos_as_xyz
  1  'x, y, z'
loop_
 _atom_site_type_symbol
 _atom_site_label
 _atom_site_symmetry_multiplicity
 _atom_site_fract_x
 _atom_site_fract_y
 _atom_site_fract_z
 _atom_site_occupancy
  La  La0  1  0.057599  0.980238  0.248016  1
  La  La1  1  0.442401  0.480238  0.748016  1
  Zn  Zn2  1  0.393661  0.477400  0.253717  1
  Zn  Zn3  1  0.106339  0.977400  0.753717  1
  Fe  Fe4  1  0.522163  0.999538  0.002699  1
  Fe  Fe5  1  0.977837  0.499538  0.502699  1
  W  W6  1  0.524094  0.000970  0.496883  1
  W  W7  1  0.975906  0.500970  0.996883  1
  O  O8  1  0.034484  0.631616  0.752496  1
  O  O9  1  0.181019  0.203417  0.939436  1
  O  O10  1  0.216223  0.171970  0.550069  1
  O  O11  1  0.283777  0.671970  0.050069  1
  O  O12  1  0.318981  0.703417  0.439436  1
  O  O13  1  0.465516  0.131616  0.252495  1
  O  O14  1  0.494884  0.903182  0.747832  1
  O  O15  1  0.683379  0.304328  0.551228  1
  O  O16  1  0.711066  0.327339  0.957623  1
  O  O17  1  0.788934  0.827339  0.457623  1
  O  O18  1  0.816621  0.804328  0.051228  1
  O  O19  1  0.005116  0.403182  0.247832  1
