# generated using pymatgen
data_CaNi2(PO4)2
_symmetry_space_group_name_H-M   'P 1'
_cell_length_a   4.95550327
_cell_length_b   8.98139471
_cell_length_c   14.93560544
_cell_angle_alpha   84.94659799
_cell_angle_beta   80.45073604
_cell_angle_gamma   73.98577104
_symmetry_Int_Tables_number   1
_chemical_formula_structural   CaNi2(PO4)2
_chemical_formula_sum   'Ca4 Ni8 P8 O32'
_cell_volume   629.46542324
_cell_formula_units_Z   4
loop_
 _symmetry_equiv_pos_site_id
 _symmetry_equiv_pos_as_xyz
  1  'x, y, z'
loop_
 _atom_site_type_symbol
 _atom_site_label
 _atom_site_symmetry_multiplicity
 _atom_site_fract_x
 _atom_site_fract_y
 _atom_site_fract_z
 _atom_site_occupancy
  Ca  Ca0  1  0.476401  0.831694  0.860017  1
  Ca  Ca1  1  0.168113  0.668306  0.639983  1
  Ca  Ca2  1  0.831887  0.331694  0.360017  1
  Ca  Ca3  1  0.523599  0.168306  0.139983  1
  Ni  Ni4  1  0.193680  0.229874  0.962054  1
  Ni  Ni5  1  0.385607  0.270127  0.537946  1
  Ni  Ni6  1  0.806320  0.770127  0.037946  1
  Ni  Ni7  1  0.500000  0.500000  -0.000000  1
  Ni  Ni8  1  0.614393  0.729873  0.462054  1
  Ni  Ni9  1  0.654998  0.750000  0.250000  1
  Ni  Ni10  1  0.345002  0.250000  0.750000  1
  Ni  Ni11  1  0.000000  -0.000000  0.500000  1
  P  P12  1  0.053604  0.563274  0.868119  1
  P  P13  1  0.773040  0.422950  0.612701  1
  P  P14  1  0.946396  0.436726  0.131881  1
  P  P15  1  0.191309  0.922950  0.112701  1
  P  P16  1  0.515004  0.063274  0.368119  1
  P  P17  1  0.484996  0.936726  0.631881  1
  P  P18  1  0.226960  0.577050  0.387299  1
  P  P19  1  0.808691  0.077050  0.887299  1
  O  O20  1  0.690560  0.392604  0.104765  1
  O  O21  1  0.829352  0.907994  0.926031  1
  O  O22  1  0.812071  0.892604  0.604765  1
  O  O23  1  0.784163  0.303520  0.540676  1
  O  O24  1  0.195195  0.395890  0.049661  1
  O  O25  1  0.564462  0.405353  0.698446  1
  O  O26  1  0.628360  0.196480  0.959324  1
  O  O27  1  0.879969  0.906087  0.131479  1
  O  O28  1  0.215837  0.696480  0.459324  1
  O  O29  1  0.663378  0.592006  0.573969  1
  O  O30  1  0.869077  0.615047  0.143562  1
  O  O31  1  0.612664  0.156610  0.285239  1
  O  O32  1  0.170648  0.092006  0.073969  1
  O  O33  1  0.082466  0.406087  0.631479  1
  O  O34  1  0.309439  0.607396  0.895235  1
  O  O35  1  0.130923  0.384953  0.856438  1
  O  O36  1  0.945485  0.656610  0.785239  1
  O  O37  1  0.371640  0.803520  0.040676  1
  O  O38  1  0.372315  0.115047  0.643562  1
  O  O39  1  0.387336  0.843390  0.714761  1
  O  O40  1  0.917534  0.593913  0.368521  1
  O  O41  1  0.359253  0.895890  0.549661  1
  O  O42  1  0.120031  0.093913  0.868521  1
  O  O43  1  0.331740  0.905353  0.198446  1
  O  O44  1  0.336622  0.407994  0.426031  1
  O  O45  1  0.187929  0.107396  0.395235  1
  O  O46  1  0.054515  0.343390  0.214761  1
  O  O47  1  0.640747  0.104110  0.450339  1
  O  O48  1  0.804805  0.604110  0.950339  1
  O  O49  1  0.668260  0.094647  0.801554  1
  O  O50  1  0.435538  0.594647  0.301554  1
  O  O51  1  0.627685  0.884953  0.356438  1
