# generated using pymatgen
data_VZn(SiO3)2
_symmetry_space_group_name_H-M   'P 1'
_cell_length_a   5.26345166
_cell_length_b   9.02262486
_cell_length_c   18.78872560
_cell_angle_alpha   90.00000000
_cell_angle_beta   90.00000000
_cell_angle_gamma   90.00000000
_symmetry_Int_Tables_number   1
_chemical_formula_structural   VZn(SiO3)2
_chemical_formula_sum   'V8 Zn8 Si16 O48'
_cell_volume   892.27939324
_cell_formula_units_Z   8
loop_
 _symmetry_equiv_pos_site_id
 _symmetry_equiv_pos_as_xyz
  1  'x, y, z'
loop_
 _atom_site_type_symbol
 _atom_site_label
 _atom_site_symmetry_multiplicity
 _atom_site_fract_x
 _atom_site_fract_y
 _atom_site_fract_z
 _atom_site_occupancy
  V  V0  1  0.344095  0.977431  0.121759  1
  V  V1  1  0.655905  0.022569  0.878241  1
  V  V2  1  0.844095  0.022569  0.378241  1
  V  V3  1  0.155905  0.977431  0.621759  1
  V  V4  1  0.344095  0.477431  0.378241  1
  V  V5  1  0.655905  0.522569  0.621759  1
  V  V6  1  0.844095  0.522569  0.121759  1
  V  V7  1  0.155905  0.477431  0.878241  1
  Zn  Zn8  1  0.641004  0.150639  0.623626  1
  Zn  Zn9  1  0.358996  0.849361  0.376374  1
  Zn  Zn10  1  0.641004  0.650639  0.876374  1
  Zn  Zn11  1  0.141004  0.849361  0.876374  1
  Zn  Zn12  1  0.858996  0.150639  0.123626  1
  Zn  Zn13  1  0.358996  0.349361  0.123626  1
  Zn  Zn14  1  0.141004  0.349361  0.623626  1
  Zn  Zn15  1  0.858996  0.650639  0.376374  1
  Si  Si16  1  0.538104  0.658564  0.231399  1
  Si  Si17  1  0.693609  0.836419  0.525864  1
  Si  Si18  1  0.806391  0.836419  0.025864  1
  Si  Si19  1  0.961896  0.158564  0.768601  1
  Si  Si20  1  0.038104  0.341436  0.268601  1
  Si  Si21  1  0.461896  0.841436  0.731399  1
  Si  Si22  1  0.193609  0.663581  0.525864  1
  Si  Si23  1  0.693609  0.336419  0.974136  1
  Si  Si24  1  0.806391  0.336419  0.474136  1
  Si  Si25  1  0.961896  0.658564  0.731399  1
  Si  Si26  1  0.461896  0.341436  0.768601  1
  Si  Si27  1  0.538104  0.158564  0.268601  1
  Si  Si28  1  0.306391  0.163581  0.474136  1
  Si  Si29  1  0.038104  0.841436  0.231399  1
  Si  Si30  1  0.306391  0.663581  0.025864  1
  Si  Si31  1  0.193609  0.163581  0.974136  1
  O  O32  1  0.970654  0.500207  0.692087  1
  O  O33  1  0.301630  0.018126  0.935561  1
  O  O34  1  0.029346  0.499793  0.307913  1
  O  O35  1  0.695717  0.337603  0.061301  1
  O  O36  1  0.195717  0.162397  0.061301  1
  O  O37  1  0.889929  0.196650  0.947419  1
  O  O38  1  0.976925  0.657134  0.818315  1
  O  O39  1  0.023075  0.842866  0.318315  1
  O  O40  1  0.695717  0.837603  0.438699  1
  O  O41  1  0.976925  0.157134  0.681685  1
  O  O42  1  0.470654  0.499793  0.807913  1
  O  O43  1  0.804283  0.337603  0.561301  1
  O  O44  1  0.698370  0.981874  0.064439  1
  O  O45  1  0.476925  0.842866  0.818315  1
  O  O46  1  0.529346  0.000207  0.307913  1
  O  O47  1  0.301630  0.518126  0.564439  1
  O  O48  1  0.470654  0.999793  0.692087  1
  O  O49  1  0.181788  0.775727  0.701160  1
  O  O50  1  0.318212  0.775727  0.201160  1
  O  O51  1  0.610071  0.696650  0.052581  1
  O  O52  1  0.804283  0.837603  0.938699  1
  O  O53  1  0.523075  0.657134  0.318315  1
  O  O54  1  0.801630  0.481874  0.935561  1
  O  O55  1  0.181788  0.275727  0.798840  1
  O  O56  1  0.304283  0.162397  0.561301  1
  O  O57  1  0.523075  0.157134  0.181685  1
  O  O58  1  0.698370  0.481874  0.435561  1
  O  O59  1  0.195717  0.662397  0.438699  1
  O  O60  1  0.198370  0.518126  0.064439  1
  O  O61  1  0.681788  0.724273  0.701160  1
  O  O62  1  0.029346  0.999793  0.192087  1
  O  O63  1  0.818212  0.724273  0.201160  1
  O  O64  1  0.818212  0.224273  0.298840  1
  O  O65  1  0.801630  0.981874  0.564439  1
  O  O66  1  0.304283  0.662397  0.938699  1
  O  O67  1  0.198370  0.018126  0.435561  1
  O  O68  1  0.318212  0.275727  0.298840  1
  O  O69  1  0.110071  0.803350  0.052581  1
  O  O70  1  0.389929  0.803350  0.552581  1
  O  O71  1  0.681788  0.224273  0.798840  1
  O  O72  1  0.389929  0.303350  0.947419  1
  O  O73  1  0.610071  0.196650  0.447419  1
  O  O74  1  0.110071  0.303350  0.447419  1
  O  O75  1  0.476925  0.342866  0.681685  1
  O  O76  1  0.529346  0.500207  0.192087  1
  O  O77  1  0.889929  0.696650  0.552581  1
  O  O78  1  0.023075  0.342866  0.181685  1
  O  O79  1  0.970654  0.000207  0.807913  1
