# generated using pymatgen
data_Ba2CuSn2F14
_symmetry_space_group_name_H-M   'P 1'
_cell_length_a   5.45218264
_cell_length_b   7.81863878
_cell_length_c   15.68612375
_cell_angle_alpha   92.39578472
_cell_angle_beta   89.59281694
_cell_angle_gamma   110.68686288
_symmetry_Int_Tables_number   1
_chemical_formula_structural   Ba2CuSn2F14
_chemical_formula_sum   'Ba4 Cu2 Sn4 F28'
_cell_volume   624.99744067
_cell_formula_units_Z   2
loop_
 _symmetry_equiv_pos_site_id
 _symmetry_equiv_pos_as_xyz
  1  'x, y, z'
loop_
 _atom_site_type_symbol
 _atom_site_label
 _atom_site_symmetry_multiplicity
 _atom_site_fract_x
 _atom_site_fract_y
 _atom_site_fract_z
 _atom_site_occupancy
  Ba  Ba0  1  0.099582  0.356884  0.628223  1
  Ba  Ba1  1  0.253643  0.353962  0.128485  1
  Ba  Ba2  1  0.903000  0.646351  0.372847  1
  Ba  Ba3  1  0.745737  0.645840  0.872713  1
  Cu  Cu4  1  0.500675  0.000610  0.000726  1
  Cu  Cu5  1  0.501010  0.002609  0.500137  1
  Sn  Sn6  1  0.096704  0.242358  0.872537  1
  Sn  Sn7  1  0.904526  0.757686  0.128503  1
  Sn  Sn8  1  0.149825  0.242267  0.372461  1
  Sn  Sn9  1  0.849526  0.760771  0.627723  1
  F  F10  1  0.927568  0.985863  0.346905  1
  F  F11  1  0.884706  0.283257  0.454574  1
  F  F12  1  0.117783  0.722093  0.546352  1
  F  F13  1  0.634130  0.502151  0.588216  1
  F  F14  1  0.630975  0.122971  0.602457  1
  F  F15  1  0.518207  0.881454  0.898560  1
  F  F16  1  0.403873  0.286261  0.953219  1
  F  F17  1  0.936488  0.013660  0.153623  1
  F  F18  1  0.365868  0.354726  0.781994  1
  F  F19  1  0.366475  0.502010  0.410172  1
  F  F20  1  0.834606  0.252201  0.788534  1
  F  F21  1  0.141134  0.503085  0.908657  1
  F  F22  1  0.424165  0.255909  0.287494  1
  F  F23  1  0.166691  0.748672  0.212623  1
  F  F24  1  0.483573  0.119529  0.102712  1
  F  F25  1  0.635484  0.644385  0.218865  1
  F  F26  1  0.123167  0.830596  0.020013  1
  F  F27  1  0.071269  0.016810  0.654578  1
  F  F28  1  0.877970  0.171138  0.981081  1
  F  F29  1  0.708551  0.835189  0.519499  1
  F  F30  1  0.596811  0.712988  0.047850  1
  F  F31  1  0.571794  0.744435  0.711895  1
  F  F32  1  0.994234  0.354973  0.282861  1
  F  F33  1  0.293709  0.170278  0.480784  1
  F  F34  1  0.370366  0.882255  0.398021  1
  F  F35  1  0.062887  0.985818  0.847799  1
  F  F36  1  0.001577  0.645893  0.717518  1
  F  F37  1  0.863074  0.497961  0.091615  1
