# generated using pymatgen
data_ZnFe2S5
_symmetry_space_group_name_H-M   'P 1'
_cell_length_a   3.66105216
_cell_length_b   5.92466154
_cell_length_c   13.47083292
_cell_angle_alpha   89.92549966
_cell_angle_beta   90.00002324
_cell_angle_gamma   90.00005289
_symmetry_Int_Tables_number   1
_chemical_formula_structural   ZnFe2S5
_chemical_formula_sum   'Zn2 Fe4 S10'
_cell_volume   292.18878629
_cell_formula_units_Z   2
loop_
 _symmetry_equiv_pos_site_id
 _symmetry_equiv_pos_as_xyz
  1  'x, y, z'
loop_
 _atom_site_type_symbol
 _atom_site_label
 _atom_site_symmetry_multiplicity
 _atom_site_fract_x
 _atom_site_fract_y
 _atom_site_fract_z
 _atom_site_occupancy
  Zn  Zn0  1  0.750000  0.944205  0.250069  1
  Zn  Zn1  1  0.249999  0.054013  0.749860  1
  Fe  Fe2  1  0.249999  0.433375  0.104820  1
  Fe  Fe3  1  0.749999  0.566789  0.895141  1
  Fe  Fe4  1  0.750000  0.567275  0.604793  1
  Fe  Fe5  1  0.250000  0.433063  0.395079  1
  S  S6  1  0.749999  0.400051  0.750005  1
  S  S7  1  0.249999  0.600747  0.249983  1
  S  S8  1  0.749999  0.610799  0.060525  1
  S  S9  1  0.249999  0.389064  0.939583  1
  S  S10  1  0.750000  0.610365  0.439435  1
  S  S11  1  0.249999  0.388774  0.560558  1
  S  S12  1  0.250001  0.093401  0.357569  1
  S  S13  1  0.750000  0.907867  0.642161  1
  S  S14  1  0.749999  0.907050  0.857722  1
  S  S15  1  0.249999  0.093160  0.142694  1
