# generated using pymatgen
data_Sr2AlCu2NiO7
_symmetry_space_group_name_H-M   'P 1'
_cell_length_a   5.30866435
_cell_length_b   5.41388868
_cell_length_c   12.05617919
_cell_angle_alpha   102.97662316
_cell_angle_beta   102.70415335
_cell_angle_gamma   90.01555120
_symmetry_Int_Tables_number   1
_chemical_formula_structural   Sr2AlCu2NiO7
_chemical_formula_sum   'Sr4 Al2 Cu4 Ni2 O14'
_cell_volume   328.93596148
_cell_formula_units_Z   2
loop_
 _symmetry_equiv_pos_site_id
 _symmetry_equiv_pos_as_xyz
  1  'x, y, z'
loop_
 _atom_site_type_symbol
 _atom_site_label
 _atom_site_symmetry_multiplicity
 _atom_site_fract_x
 _atom_site_fract_y
 _atom_site_fract_z
 _atom_site_occupancy
  Sr  Sr0  1  0.338877  0.335452  0.698829  1
  Sr  Sr1  1  0.640680  0.664758  0.301889  1
  Sr  Sr2  1  0.838721  0.863467  0.698753  1
  Sr  Sr3  1  0.140718  0.136845  0.301856  1
  Al  Al4  1  0.984998  0.000989  0.000408  1
  Al  Al5  1  0.485131  0.500071  0.000440  1
  Cu  Cu6  1  0.923808  0.442311  0.881322  1
  Cu  Cu7  1  0.042913  0.558938  0.119454  1
  Cu  Cu8  1  0.423910  0.939779  0.881651  1
  Cu  Cu9  1  0.543083  0.060973  0.119752  1
  Ni  Ni10  1  0.278654  0.678703  0.500254  1
  Ni  Ni11  1  0.778952  0.321692  0.500205  1
  O  O12  1  0.138045  0.358049  0.500284  1
  O  O13  1  0.637314  0.642414  0.500296  1
  O  O14  1  0.250960  0.268199  0.892523  1
  O  O15  1  0.359255  0.732522  0.108361  1
  O  O16  1  0.750899  0.125212  0.892505  1
  O  O17  1  0.859339  0.876144  0.108342  1
  O  O18  1  0.603125  0.621141  0.889515  1
  O  O19  1  0.714319  0.379545  0.111388  1
  O  O20  1  0.102853  0.769034  0.889504  1
  O  O21  1  0.214264  0.232334  0.111361  1
  O  O22  1  0.295041  0.859174  0.652312  1
  O  O23  1  0.643568  0.141399  0.347747  1
  O  O24  1  0.795777  0.293887  0.652787  1
  O  O25  1  0.143040  0.707001  0.347944  1
