# generated using pymatgen
data_MnZnP2O7
_symmetry_space_group_name_H-M   'P 1'
_cell_length_a   7.12649917
_cell_length_b   8.57307288
_cell_length_c   9.24641678
_cell_angle_alpha   90.00000000
_cell_angle_beta   112.73886458
_cell_angle_gamma   90.00000000
_symmetry_Int_Tables_number   1
_chemical_formula_structural   MnZnP2O7
_chemical_formula_sum   'Mn4 Zn4 P8 O28'
_cell_volume   521.01134429
_cell_formula_units_Z   4
loop_
 _symmetry_equiv_pos_site_id
 _symmetry_equiv_pos_as_xyz
  1  'x, y, z'
loop_
 _atom_site_type_symbol
 _atom_site_label
 _atom_site_symmetry_multiplicity
 _atom_site_fract_x
 _atom_site_fract_y
 _atom_site_fract_z
 _atom_site_occupancy
  Mn  Mn0  1  0.372236  0.069476  0.608796  1
  Mn  Mn1  1  0.627764  0.930524  0.391204  1
  Mn  Mn2  1  0.127764  0.569476  0.891204  1
  Mn  Mn3  1  0.872236  0.430524  0.108796  1
  Zn  Zn4  1  0.117857  0.941230  0.816794  1
  Zn  Zn5  1  0.382143  0.441230  0.683206  1
  Zn  Zn6  1  0.617857  0.558770  0.316794  1
  Zn  Zn7  1  0.882143  0.058770  0.183206  1
  P  P8  1  0.180379  0.735013  0.242837  1
  P  P9  1  0.436551  0.223288  0.969588  1
  P  P10  1  0.680379  0.764987  0.742837  1
  P  P11  1  0.936551  0.276712  0.469588  1
  P  P12  1  0.319621  0.235013  0.257163  1
  P  P13  1  0.063449  0.723288  0.530412  1
  P  P14  1  0.563449  0.776712  0.030412  1
  P  P15  1  0.819621  0.264987  0.757163  1
  O  O16  1  0.352104  0.178219  0.100946  1
  O  O17  1  0.578499  0.609153  0.690162  1
  O  O18  1  0.078499  0.890847  0.190162  1
  O  O19  1  0.352022  0.383881  0.897729  1
  O  O20  1  0.647896  0.821781  0.899054  1
  O  O21  1  0.407114  0.102950  0.377200  1
  O  O22  1  0.647978  0.616120  0.102271  1
  O  O23  1  0.357865  0.090352  0.849747  1
  O  O24  1  0.170784  0.271275  0.548049  1
  O  O25  1  0.592886  0.897050  0.622800  1
  O  O26  1  0.907114  0.397050  0.877200  1
  O  O27  1  0.914307  0.760269  0.796792  1
  O  O28  1  0.585693  0.260269  0.703208  1
  O  O29  1  0.852104  0.321781  0.600946  1
  O  O30  1  0.092886  0.602950  0.122800  1
  O  O31  1  0.921501  0.109153  0.809838  1
  O  O32  1  0.085693  0.239731  0.203208  1
  O  O33  1  0.642135  0.909648  0.150253  1
  O  O34  1  0.670784  0.228725  0.048049  1
  O  O35  1  0.329216  0.771275  0.951951  1
  O  O36  1  0.147978  0.883880  0.602271  1
  O  O37  1  0.857865  0.409648  0.349747  1
  O  O38  1  0.142135  0.590352  0.650253  1
  O  O39  1  0.421501  0.390847  0.309838  1
  O  O40  1  0.414307  0.739731  0.296792  1
  O  O41  1  0.852022  0.116120  0.397729  1
  O  O42  1  0.829216  0.728725  0.451951  1
  O  O43  1  0.147896  0.678219  0.399054  1
