# generated using pymatgen
data_Ca(Fe9O13)2
_symmetry_space_group_name_H-M   'P 1'
_cell_length_a   5.99812771
_cell_length_b   5.26193845
_cell_length_c   17.49230361
_cell_angle_alpha   98.06981285
_cell_angle_beta   90.00012010
_cell_angle_gamma   106.61246655
_symmetry_Int_Tables_number   1
_chemical_formula_structural   Ca(Fe9O13)2
_chemical_formula_sum   'Ca1 Fe18 O26'
_cell_volume   523.33664247
_cell_formula_units_Z   1
loop_
 _symmetry_equiv_pos_site_id
 _symmetry_equiv_pos_as_xyz
  1  'x, y, z'
loop_
 _atom_site_type_symbol
 _atom_site_label
 _atom_site_symmetry_multiplicity
 _atom_site_fract_x
 _atom_site_fract_y
 _atom_site_fract_z
 _atom_site_occupancy
  Ca  Ca0  1  0.607071  0.415416  0.229306  1
  Fe  Fe1  1  0.250301  0.005446  0.500001  1
  Fe  Fe2  1  0.748097  0.992448  0.499852  1
  Fe  Fe3  1  0.320097  0.284490  0.040536  1
  Fe  Fe4  1  0.824063  0.292106  0.041750  1
  Fe  Fe5  1  0.178253  0.711486  0.957496  1
  Fe  Fe6  1  0.677152  0.708189  0.955695  1
  Fe  Fe7  1  0.371857  0.494273  0.417433  1
  Fe  Fe8  1  0.876557  0.496647  0.417046  1
  Fe  Fe9  1  0.124206  0.501732  0.584002  1
  Fe  Fe10  1  0.626365  0.500114  0.582263  1
  Fe  Fe11  1  0.461055  0.850679  0.123410  1
  Fe  Fe12  1  0.975134  0.888362  0.130192  1
  Fe  Fe13  1  0.032215  0.130138  0.866480  1
  Fe  Fe14  1  0.530290  0.124990  0.865228  1
  Fe  Fe15  1  0.487481  0.956751  0.328661  1
  Fe  Fe16  1  0.998076  0.992316  0.324307  1
  Fe  Fe17  1  0.004390  0.018692  0.677395  1
  Fe  Fe18  1  0.504767  0.020132  0.675801  1
  O  O19  1  0.985930  0.986561  0.003508  1
  O  O20  1  0.502727  0.976402  0.002280  1
  O  O21  1  0.454385  0.771583  0.226240  1
  O  O22  1  0.937767  0.772381  0.228027  1
  O  O23  1  0.058601  0.233886  0.771333  1
  O  O24  1  0.557478  0.231697  0.770599  1
  O  O25  1  0.137527  0.594743  0.067920  1
  O  O26  1  0.657850  0.587254  0.071742  1
  O  O27  1  0.355393  0.421186  0.931817  1
  O  O28  1  0.853301  0.417026  0.933388  1
  O  O29  1  0.294515  0.129387  0.139601  1
  O  O30  1  0.775687  0.137366  0.137212  1
  O  O31  1  0.217727  0.879651  0.867036  1
  O  O32  1  0.720698  0.879712  0.865146  1
  O  O33  1  0.318513  0.230322  0.319794  1
  O  O34  1  0.795740  0.230214  0.321215  1
  O  O35  1  0.192553  0.769968  0.673797  1
  O  O36  1  0.691592  0.769467  0.670798  1
  O  O37  1  0.197276  0.795671  0.391519  1
  O  O38  1  0.695961  0.778963  0.384739  1
  O  O39  1  0.307722  0.236572  0.609087  1
  O  O40  1  0.810159  0.243996  0.610335  1
  O  O41  1  0.072426  0.255436  0.473754  1
  O  O42  1  0.555651  0.261448  0.475819  1
  O  O43  1  0.420732  0.728517  0.532726  1
  O  O44  1  0.941399  0.723069  0.531940  1
