# generated using pymatgen
data_Ca(BiO2)2
_symmetry_space_group_name_H-M   'P 1'
_cell_length_a   3.43735622
_cell_length_b   11.38404524
_cell_length_c   11.48282330
_cell_angle_alpha   89.99995778
_cell_angle_beta   89.99990139
_cell_angle_gamma   89.99994031
_symmetry_Int_Tables_number   1
_chemical_formula_structural   Ca(BiO2)2
_chemical_formula_sum   'Ca4 Bi8 O16'
_cell_volume   449.33457345
_cell_formula_units_Z   4
loop_
 _symmetry_equiv_pos_site_id
 _symmetry_equiv_pos_as_xyz
  1  'x, y, z'
loop_
 _atom_site_type_symbol
 _atom_site_label
 _atom_site_symmetry_multiplicity
 _atom_site_fract_x
 _atom_site_fract_y
 _atom_site_fract_z
 _atom_site_occupancy
  Ca  Ca0  1  0.308802  0.750008  0.134955  1
  Ca  Ca1  1  0.308801  0.250008  0.365045  1
  Ca  Ca2  1  0.691201  0.750006  0.634953  1
  Ca  Ca3  1  0.691197  0.250007  0.865046  1
  Bi  Bi4  1  0.788189  0.577443  0.381161  1
  Bi  Bi5  1  0.788195  0.077443  0.118839  1
  Bi  Bi6  1  0.211810  0.077442  0.618838  1
  Bi  Bi7  1  0.788195  0.422576  0.118836  1
  Bi  Bi8  1  0.211805  0.422577  0.618836  1
  Bi  Bi9  1  0.788191  0.922577  0.381164  1
  Bi  Bi10  1  0.211805  0.922575  0.881163  1
  Bi  Bi11  1  0.211804  0.577442  0.881161  1
  O  O12  1  0.225389  0.879302  0.523546  1
  O  O13  1  0.774616  0.120684  0.476453  1
  O  O14  1  0.237765  0.999991  0.249999  1
  O  O15  1  0.774621  0.879303  0.023548  1
  O  O16  1  0.774613  0.620683  0.023549  1
  O  O17  1  0.810979  0.249995  0.225082  1
  O  O18  1  0.225383  0.120685  0.976453  1
  O  O19  1  0.189021  0.249995  0.725082  1
  O  O20  1  0.237761  0.499993  0.250000  1
  O  O21  1  0.762239  0.999995  0.750001  1
  O  O22  1  0.225386  0.620685  0.523547  1
  O  O23  1  0.189020  0.749996  0.774918  1
  O  O24  1  0.810980  0.749995  0.274919  1
  O  O25  1  0.762235  0.499992  0.750001  1
  O  O26  1  0.225382  0.379304  0.976451  1
  O  O27  1  0.774615  0.379301  0.476453  1
