# generated using pymatgen
data_CaSi2WO6
_symmetry_space_group_name_H-M   'P 1'
_cell_length_a   5.47649203
_cell_length_b   10.01007566
_cell_length_c   19.85674125
_cell_angle_alpha   90.00000000
_cell_angle_beta   90.00000000
_cell_angle_gamma   90.00000000
_symmetry_Int_Tables_number   1
_chemical_formula_structural   CaSi2WO6
_chemical_formula_sum   'Ca8 Si16 W8 O48'
_cell_volume   1088.54853249
_cell_formula_units_Z   8
loop_
 _symmetry_equiv_pos_site_id
 _symmetry_equiv_pos_as_xyz
  1  'x, y, z'
loop_
 _atom_site_type_symbol
 _atom_site_label
 _atom_site_symmetry_multiplicity
 _atom_site_fract_x
 _atom_site_fract_y
 _atom_site_fract_z
 _atom_site_occupancy
  Ca  Ca0  1  0.622226  0.140621  0.627261  1
  Ca  Ca1  1  0.377774  0.859379  0.372739  1
  Ca  Ca2  1  0.622226  0.640621  0.872739  1
  Ca  Ca3  1  0.122226  0.859379  0.872739  1
  Ca  Ca4  1  0.877774  0.140621  0.127261  1
  Ca  Ca5  1  0.377774  0.359379  0.127261  1
  Ca  Ca6  1  0.122226  0.359379  0.627261  1
  Ca  Ca7  1  0.877774  0.640621  0.372739  1
  Si  Si8  1  0.565163  0.676376  0.223797  1
  Si  Si9  1  0.761815  0.835154  0.513961  1
  Si  Si10  1  0.738185  0.835154  0.013961  1
  Si  Si11  1  0.934837  0.176376  0.776203  1
  Si  Si12  1  0.065163  0.323624  0.276203  1
  Si  Si13  1  0.434837  0.823624  0.723797  1
  Si  Si14  1  0.261815  0.664846  0.513961  1
  Si  Si15  1  0.761815  0.335154  0.986039  1
  Si  Si16  1  0.738185  0.335154  0.486039  1
  Si  Si17  1  0.934837  0.676376  0.723797  1
  Si  Si18  1  0.434837  0.323624  0.776203  1
  Si  Si19  1  0.565163  0.176376  0.276203  1
  Si  Si20  1  0.238185  0.164846  0.486039  1
  Si  Si21  1  0.065163  0.823624  0.223797  1
  Si  Si22  1  0.238185  0.664846  0.013961  1
  Si  Si23  1  0.261815  0.164846  0.986039  1
  W  W24  1  0.365778  0.961806  0.122609  1
  W  W25  1  0.634222  0.038194  0.877391  1
  W  W26  1  0.865778  0.038194  0.377391  1
  W  W27  1  0.134222  0.961806  0.622609  1
  W  W28  1  0.365778  0.461806  0.377391  1
  W  W29  1  0.634222  0.538194  0.622609  1
  W  W30  1  0.865778  0.538194  0.122609  1
  W  W31  1  0.134222  0.461806  0.877391  1
  O  O32  1  0.952405  0.530802  0.688576  1
  O  O33  1  0.303830  0.034365  0.939220  1
  O  O34  1  0.047595  0.469198  0.311424  1
  O  O35  1  0.764041  0.355322  0.068467  1
  O  O36  1  0.264041  0.144678  0.068467  1
  O  O37  1  0.986712  0.227577  0.968989  1
  O  O38  1  0.938202  0.691327  0.803772  1
  O  O39  1  0.061798  0.808673  0.303772  1
  O  O40  1  0.764041  0.855322  0.431533  1
  O  O41  1  0.938202  0.191327  0.696228  1
  O  O42  1  0.452405  0.469198  0.811424  1
  O  O43  1  0.735959  0.355322  0.568467  1
  O  O44  1  0.696170  0.965635  0.060780  1
  O  O45  1  0.438202  0.808673  0.803772  1
  O  O46  1  0.547595  0.030802  0.311424  1
  O  O47  1  0.303830  0.534365  0.560780  1
  O  O48  1  0.452405  0.969198  0.688576  1
  O  O49  1  0.155266  0.776623  0.690878  1
  O  O50  1  0.344734  0.776623  0.190878  1
  O  O51  1  0.513288  0.727577  0.031011  1
  O  O52  1  0.735959  0.855322  0.931533  1
  O  O53  1  0.561798  0.691327  0.303772  1
  O  O54  1  0.803830  0.465635  0.939220  1
  O  O55  1  0.155266  0.276623  0.809122  1
  O  O56  1  0.235959  0.144678  0.568467  1
  O  O57  1  0.561798  0.191327  0.196228  1
  O  O58  1  0.696170  0.465635  0.439220  1
  O  O59  1  0.264041  0.644678  0.431533  1
  O  O60  1  0.196170  0.534365  0.060780  1
  O  O61  1  0.655266  0.723377  0.690878  1
  O  O62  1  0.047595  0.969198  0.188576  1
  O  O63  1  0.844734  0.723377  0.190878  1
  O  O64  1  0.844734  0.223377  0.309122  1
  O  O65  1  0.803830  0.965635  0.560780  1
  O  O66  1  0.235959  0.644678  0.931533  1
  O  O67  1  0.196170  0.034365  0.439220  1
  O  O68  1  0.344734  0.276623  0.309122  1
  O  O69  1  0.013288  0.772423  0.031011  1
  O  O70  1  0.486712  0.772423  0.531011  1
  O  O71  1  0.655266  0.223377  0.809122  1
  O  O72  1  0.486712  0.272423  0.968989  1
  O  O73  1  0.513288  0.227577  0.468989  1
  O  O74  1  0.013288  0.272423  0.468989  1
  O  O75  1  0.438202  0.308673  0.696228  1
  O  O76  1  0.547595  0.530802  0.188576  1
  O  O77  1  0.986712  0.727577  0.531011  1
  O  O78  1  0.061798  0.308673  0.196228  1
  O  O79  1  0.952405  0.030802  0.811424  1
