# generated using pymatgen
data_Ca(TiS2)2
_symmetry_space_group_name_H-M   'P 1'
_cell_length_a   7.50471510
_cell_length_b   3.54624090
_cell_length_c   13.47323899
_cell_angle_alpha   89.99999745
_cell_angle_beta   152.42010644
_cell_angle_gamma   103.66634728
_symmetry_Int_Tables_number   1
_chemical_formula_structural   Ca(TiS2)2
_chemical_formula_sum   'Ca1 Ti2 S4'
_cell_volume   142.76904782
_cell_formula_units_Z   1
loop_
 _symmetry_equiv_pos_site_id
 _symmetry_equiv_pos_as_xyz
  1  'x, y, z'
loop_
 _atom_site_type_symbol
 _atom_site_label
 _atom_site_symmetry_multiplicity
 _atom_site_fract_x
 _atom_site_fract_y
 _atom_site_fract_z
 _atom_site_occupancy
  Ca  Ca0  1  0.000000  0.000000  0.750000  1
  Ti  Ti1  1  0.031792  0.015896  0.019696  1
  Ti  Ti2  1  0.968208  0.984104  0.480304  1
  S  S3  1  0.683512  0.341755  0.737199  1
  S  S4  1  0.683457  0.341728  0.231536  1
  S  S5  1  0.316543  0.658272  0.268464  1
  S  S6  1  0.316488  0.658245  0.762801  1
