# generated using pymatgen
data_Mg(CuO2)2
_symmetry_space_group_name_H-M   'P 1'
_cell_length_a   2.91695375
_cell_length_b   8.73283694
_cell_length_c   10.29312527
_cell_angle_alpha   90.00637561
_cell_angle_beta   89.96672630
_cell_angle_gamma   89.95145704
_symmetry_Int_Tables_number   1
_chemical_formula_structural   Mg(CuO2)2
_chemical_formula_sum   'Mg4 Cu8 O16'
_cell_volume   262.19953689
_cell_formula_units_Z   4
loop_
 _symmetry_equiv_pos_site_id
 _symmetry_equiv_pos_as_xyz
  1  'x, y, z'
loop_
 _atom_site_type_symbol
 _atom_site_label
 _atom_site_symmetry_multiplicity
 _atom_site_fract_x
 _atom_site_fract_y
 _atom_site_fract_z
 _atom_site_occupancy
  Mg  Mg0  1  0.749767  0.239775  0.338325  1
  Mg  Mg1  1  0.250095  0.759871  0.660927  1
  Mg  Mg2  1  0.743842  0.741907  0.159071  1
  Mg  Mg3  1  0.254653  0.258525  0.836112  1
  Cu  Cu4  1  0.247572  0.413263  0.100614  1
  Cu  Cu5  1  0.754446  0.086728  0.599835  1
  Cu  Cu6  1  0.255093  0.913494  0.398103  1
  Cu  Cu7  1  0.747641  0.586568  0.898310  1
  Cu  Cu8  1  0.749363  0.559817  0.383959  1
  Cu  Cu9  1  0.247189  0.441577  0.614682  1
  Cu  Cu10  1  0.755472  0.060569  0.114031  1
  Cu  Cu11  1  0.256879  0.940376  0.883593  1
  O  O12  1  0.254913  0.903649  0.072337  1
  O  O13  1  0.756986  0.098536  0.925756  1
  O  O14  1  0.247458  0.403263  0.426280  1
  O  O15  1  0.742180  0.598519  0.573254  1
  O  O16  1  0.253982  0.029629  0.715280  1
  O  O17  1  0.756005  0.975008  0.283099  1
  O  O18  1  0.249951  0.525929  0.784122  1
  O  O19  1  0.748375  0.471959  0.216480  1
  O  O20  1  0.244235  0.624123  0.035682  1
  O  O21  1  0.744121  0.377018  0.964213  1
  O  O22  1  0.253807  0.123336  0.463900  1
  O  O23  1  0.755848  0.876316  0.535736  1
  O  O24  1  0.757536  0.789190  0.821374  1
  O  O25  1  0.253831  0.209709  0.176027  1
  O  O26  1  0.249289  0.710186  0.321333  1
  O  O27  1  0.749869  0.290823  0.674586  1
