# generated using pymatgen
data_Ba4CaFe4Cu2F28
_symmetry_space_group_name_H-M   'P 1'
_cell_length_a   5.47339404
_cell_length_b   7.59638444
_cell_length_c   15.19483738
_cell_angle_alpha   90.63003467
_cell_angle_beta   89.99458802
_cell_angle_gamma   111.08117763
_symmetry_Int_Tables_number   1
_chemical_formula_structural   Ba4CaFe4Cu2F28
_chemical_formula_sum   'Ba4 Ca1 Fe4 Cu2 F28'
_cell_volume   589.44701378
_cell_formula_units_Z   1
loop_
 _symmetry_equiv_pos_site_id
 _symmetry_equiv_pos_as_xyz
  1  'x, y, z'
loop_
 _atom_site_type_symbol
 _atom_site_label
 _atom_site_symmetry_multiplicity
 _atom_site_fract_x
 _atom_site_fract_y
 _atom_site_fract_z
 _atom_site_occupancy
  Ba  Ba0  1  0.124967  0.370279  0.633967  1
  Ba  Ba1  1  0.261004  0.382429  0.115859  1
  Ba  Ba2  1  0.878381  0.618511  0.385561  1
  Ba  Ba3  1  0.752780  0.628354  0.867254  1
  Ca  Ca4  1  0.591068  0.000592  0.250370  1
  Fe  Fe5  1  0.100434  0.239163  0.870308  1
  Fe  Fe6  1  0.910616  0.759920  0.127534  1
  Fe  Fe7  1  0.150402  0.240671  0.373364  1
  Fe  Fe8  1  0.860880  0.759802  0.630824  1
  Cu  Cu9  1  0.499396  0.001525  0.000896  1
  Cu  Cu10  1  0.498248  0.998572  0.499759  1
  F  F11  1  0.922301  0.982911  0.345692  1
  F  F12  1  0.891129  0.276186  0.453282  1
  F  F13  1  0.116589  0.734707  0.540966  1
  F  F14  1  0.651341  0.508447  0.583502  1
  F  F15  1  0.602465  0.105167  0.604301  1
  F  F16  1  0.498083  0.894512  0.896631  1
  F  F17  1  0.381702  0.265843  0.960095  1
  F  F18  1  0.939990  0.017824  0.154842  1
  F  F19  1  0.368720  0.351928  0.783483  1
  F  F20  1  0.354972  0.500657  0.399500  1
  F  F21  1  0.845495  0.259547  0.791822  1
  F  F22  1  0.142078  0.491251  0.917115  1
  F  F23  1  0.418025  0.232359  0.289402  1
  F  F24  1  0.187387  0.768382  0.211001  1
  F  F25  1  0.498976  0.104260  0.111255  1
  F  F26  1  0.649757  0.682523  0.223976  1
  F  F27  1  0.151591  0.840309  0.022078  1
  F  F28  1  0.063915  0.014225  0.649195  1
  F  F29  1  0.844648  0.155853  0.983683  1
  F  F30  1  0.689814  0.844180  0.517315  1
  F  F31  1  0.615240  0.723948  0.047963  1
  F  F32  1  0.585062  0.738258  0.709395  1
  F  F33  1  0.966352  0.318016  0.277128  1
  F  F34  1  0.310969  0.159969  0.478352  1
  F  F35  1  0.395001  0.896004  0.389182  1
  F  F36  1  0.049479  0.984485  0.852505  1
  F  F37  1  0.015349  0.646349  0.717677  1
  F  F38  1  0.855266  0.499920  0.101136  1
