# generated using pymatgen
data_ZnSn(GeO3)2
_symmetry_space_group_name_H-M   'P 1'
_cell_length_a   5.46871996
_cell_length_b   9.48900990
_cell_length_c   11.45870669
_cell_angle_alpha   90.00000000
_cell_angle_beta   110.32502020
_cell_angle_gamma   90.00000000
_symmetry_Int_Tables_number   1
_chemical_formula_structural   ZnSn(GeO3)2
_chemical_formula_sum   'Zn4 Sn4 Ge8 O24'
_cell_volume   557.60081387
_cell_formula_units_Z   4
loop_
 _symmetry_equiv_pos_site_id
 _symmetry_equiv_pos_as_xyz
  1  'x, y, z'
loop_
 _atom_site_type_symbol
 _atom_site_label
 _atom_site_symmetry_multiplicity
 _atom_site_fract_x
 _atom_site_fract_y
 _atom_site_fract_z
 _atom_site_occupancy
  Zn  Zn0  1  0.389197  0.520192  0.197683  1
  Zn  Zn1  1  0.110803  0.020192  0.802317  1
  Zn  Zn2  1  0.610803  0.479808  0.802317  1
  Zn  Zn3  1  0.889197  0.979808  0.197683  1
  Sn  Sn4  1  0.996808  0.614628  0.255176  1
  Sn  Sn5  1  0.503192  0.114628  0.744824  1
  Sn  Sn6  1  0.003192  0.385372  0.744824  1
  Sn  Sn7  1  0.496808  0.885372  0.255176  1
  Ge  Ge8  1  0.770921  0.321520  0.069780  1
  Ge  Ge9  1  0.729079  0.821520  0.930220  1
  Ge  Ge10  1  0.229079  0.678480  0.930220  1
  Ge  Ge11  1  0.270921  0.178480  0.069780  1
  Ge  Ge12  1  0.141410  0.348426  0.492144  1
  Ge  Ge13  1  0.358590  0.848426  0.507856  1
  Ge  Ge14  1  0.858590  0.651574  0.507856  1
  Ge  Ge15  1  0.641410  0.151574  0.492144  1
  O  O16  1  0.382487  0.274005  0.433301  1
  O  O17  1  0.117513  0.774005  0.566699  1
  O  O18  1  0.617513  0.725995  0.566699  1
  O  O19  1  0.882487  0.225995  0.433301  1
  O  O20  1  0.130650  0.327361  0.126429  1
  O  O21  1  0.369350  0.827361  0.873572  1
  O  O22  1  0.869350  0.672639  0.873572  1
  O  O23  1  0.630650  0.172639  0.126429  1
  O  O24  1  0.634317  0.979052  0.432588  1
  O  O25  1  0.865683  0.479052  0.567412  1
  O  O26  1  0.365683  0.020948  0.567412  1
  O  O27  1  0.134317  0.520948  0.432588  1
  O  O28  1  0.184931  0.036389  0.146826  1
  O  O29  1  0.315069  0.536389  0.853174  1
  O  O30  1  0.815069  0.963611  0.853174  1
  O  O31  1  0.684931  0.463611  0.146826  1
  O  O32  1  0.677026  0.306842  0.909816  1
  O  O33  1  0.822974  0.806842  0.090184  1
  O  O34  1  0.322974  0.693158  0.090184  1
  O  O35  1  0.177026  0.193158  0.909816  1
  O  O36  1  0.301202  0.333001  0.665743  1
  O  O37  1  0.198798  0.833001  0.334257  1
  O  O38  1  0.698798  0.666999  0.334257  1
  O  O39  1  0.801202  0.166999  0.665743  1
