# generated using pymatgen
data_Ba2YCo2F11
_symmetry_space_group_name_H-M   'P 1'
_cell_length_a   7.92267843
_cell_length_b   7.92267836
_cell_length_c   13.60974558
_cell_angle_alpha   90.00000000
_cell_angle_beta   90.00000000
_cell_angle_gamma   120.00000026
_symmetry_Int_Tables_number   1
_chemical_formula_structural   Ba2YCo2F11
_chemical_formula_sum   'Ba6 Y3 Co6 F33'
_cell_volume   739.81765527
_cell_formula_units_Z   3
loop_
 _symmetry_equiv_pos_site_id
 _symmetry_equiv_pos_as_xyz
  1  'x, y, z'
loop_
 _atom_site_type_symbol
 _atom_site_label
 _atom_site_symmetry_multiplicity
 _atom_site_fract_x
 _atom_site_fract_y
 _atom_site_fract_z
 _atom_site_occupancy
  Ba  Ba0  1  0.553037  0.185620  0.663587  1
  Ba  Ba1  1  0.167493  0.524640  0.821281  1
  Ba  Ba2  1  0.632583  0.446963  0.996920  1
  Ba  Ba3  1  0.475360  0.642853  0.487947  1
  Ba  Ba4  1  0.357147  0.832507  0.154614  1
  Ba  Ba5  1  0.814380  0.367417  0.330253  1
  Y  Y6  1  0.130558  0.007076  0.894099  1
  Y  Y7  1  0.876518  0.869442  0.227432  1
  Y  Y8  1  0.992924  0.123482  0.560765  1
  Co  Co9  1  0.627477  0.993378  0.883246  1
  Co  Co10  1  0.782002  0.737228  0.721658  1
  Co  Co11  1  0.262772  0.044773  0.388324  1
  Co  Co12  1  0.365901  0.372523  0.216579  1
  Co  Co13  1  0.955227  0.217998  0.054991  1
  Co  Co14  1  0.006622  0.634099  0.549912  1
  F  F15  1  0.667222  0.097577  0.025191  1
  F  F16  1  0.503021  0.719996  0.930946  1
  F  F17  1  0.430355  0.332778  0.358524  1
  F  F18  1  0.082327  0.415936  0.490103  1
  F  F19  1  0.568794  0.303442  0.177687  1
  F  F20  1  0.963647  0.656331  0.192824  1
  F  F21  1  0.584064  0.666391  0.156770  1
  F  F22  1  0.343669  0.307316  0.859491  1
  F  F23  1  0.734647  0.431206  0.511020  1
  F  F24  1  0.244859  0.331790  0.078951  1
  F  F25  1  0.333609  0.917673  0.823437  1
  F  F26  1  0.902423  0.569645  0.691858  1
  F  F27  1  0.309585  0.015819  0.011319  1
  F  F28  1  0.013796  0.484780  0.008627  1
  F  F29  1  0.706234  0.690415  0.344652  1
  F  F30  1  0.280004  0.783025  0.597612  1
  F  F31  1  0.949564  0.147898  0.902053  1
  F  F32  1  0.086931  0.755141  0.412284  1
  F  F33  1  0.998802  0.059227  0.391087  1
  F  F34  1  0.984181  0.293766  0.677985  1
  F  F35  1  0.060425  0.001198  0.724421  1
  F  F36  1  0.515220  0.529015  0.675294  1
  F  F37  1  0.470985  0.986204  0.341960  1
  F  F38  1  0.198334  0.050436  0.235386  1
  F  F39  1  0.668210  0.913069  0.745618  1
  F  F40  1  0.696558  0.265353  0.844354  1
  F  F41  1  0.216975  0.496979  0.264279  1
  F  F42  1  0.877821  0.714464  0.865309  1
  F  F43  1  0.836643  0.122179  0.198642  1
  F  F44  1  0.940773  0.939575  0.057754  1
  F  F45  1  0.692684  0.036353  0.526157  1
  F  F46  1  0.852102  0.801666  0.568719  1
  F  F47  1  0.285536  0.163357  0.531975  1
