# generated using pymatgen
data_La2ZnSbO6
_symmetry_space_group_name_H-M   'P 1'
_cell_length_a   5.77686660
_cell_length_b   5.77686621
_cell_length_c   5.77686685
_cell_angle_alpha   61.07135386
_cell_angle_beta   61.07135503
_cell_angle_gamma   61.07135809
_symmetry_Int_Tables_number   1
_chemical_formula_structural   La2ZnSbO6
_chemical_formula_sum   'La2 Zn1 Sb1 O6'
_cell_volume   139.60888402
_cell_formula_units_Z   1
loop_
 _symmetry_equiv_pos_site_id
 _symmetry_equiv_pos_as_xyz
  1  'x, y, z'
loop_
 _atom_site_type_symbol
 _atom_site_label
 _atom_site_symmetry_multiplicity
 _atom_site_fract_x
 _atom_site_fract_y
 _atom_site_fract_z
 _atom_site_occupancy
  La  La0  1  0.750387  0.750387  0.750387  1
  La  La1  1  0.249613  0.249613  0.249613  1
  Zn  Zn2  1  0.500000  0.500000  0.500000  1
  Sb  Sb3  1  0.000000  0.000000  0.000000  1
  O  O4  1  0.345922  0.752793  0.153249  1
  O  O5  1  0.752793  0.153249  0.345922  1
  O  O6  1  0.153249  0.345922  0.752793  1
  O  O7  1  0.654078  0.247207  0.846751  1
  O  O8  1  0.846751  0.654078  0.247207  1
  O  O9  1  0.247207  0.846751  0.654078  1
