# generated using pymatgen
data_Ca(WO2)2
_symmetry_space_group_name_H-M   'P 1'
_cell_length_a   6.50376292
_cell_length_b   6.50376195
_cell_length_c   6.36832654
_cell_angle_alpha   60.68649772
_cell_angle_beta   60.68650529
_cell_angle_gamma   62.69006311
_symmetry_Int_Tables_number   1
_chemical_formula_structural   Ca(WO2)2
_chemical_formula_sum   'Ca2 W4 O8'
_cell_volume   196.11670512
_cell_formula_units_Z   2
loop_
 _symmetry_equiv_pos_site_id
 _symmetry_equiv_pos_as_xyz
  1  'x, y, z'
loop_
 _atom_site_type_symbol
 _atom_site_label
 _atom_site_symmetry_multiplicity
 _atom_site_fract_x
 _atom_site_fract_y
 _atom_site_fract_z
 _atom_site_occupancy
  Ca  Ca0  1  0.125000  0.625000  0.625000  1
  Ca  Ca1  1  0.625000  0.125000  0.625000  1
  W  W2  1  0.019774  0.019774  0.980226  1
  W  W3  1  0.230226  0.230226  0.269774  1
  W  W4  1  0.625000  0.625000  0.125000  1
  W  W5  1  0.625000  0.625000  0.625000  1
  O  O6  1  0.385940  0.385940  0.360666  1
  O  O7  1  0.416786  0.857748  0.362734  1
  O  O8  1  0.385940  0.385940  0.867454  1
  O  O9  1  0.857748  0.416786  0.362734  1
  O  O10  1  0.392252  0.833214  0.887266  1
  O  O11  1  0.833214  0.392252  0.887266  1
  O  O12  1  0.864060  0.864060  0.382546  1
  O  O13  1  0.864060  0.864060  0.889334  1
