# generated using pymatgen
data_Zn(NiO2)2
_symmetry_space_group_name_H-M   'P 1'
_cell_length_a   5.88516326
_cell_length_b   5.88187890
_cell_length_c   17.57691414
_cell_angle_alpha   59.90601260
_cell_angle_beta   60.52383154
_cell_angle_gamma   60.00482233
_symmetry_Int_Tables_number   1
_chemical_formula_structural   Zn(NiO2)2
_chemical_formula_sum   'Zn6 Ni12 O24'
_cell_volume   431.61459529
_cell_formula_units_Z   6
loop_
 _symmetry_equiv_pos_site_id
 _symmetry_equiv_pos_as_xyz
  1  'x, y, z'
loop_
 _atom_site_type_symbol
 _atom_site_label
 _atom_site_symmetry_multiplicity
 _atom_site_fract_x
 _atom_site_fract_y
 _atom_site_fract_z
 _atom_site_occupancy
  Zn  Zn0  1  0.139570  0.118296  0.041290  1
  Zn  Zn1  1  0.500498  0.502026  0.331851  1
  Zn  Zn2  1  0.999738  0.500164  0.166548  1
  Zn  Zn3  1  0.499389  0.498091  0.668077  1
  Zn  Zn4  1  0.999862  0.500177  0.499936  1
  Zn  Zn5  1  0.999192  0.499943  0.833674  1
  Ni  Ni6  1  0.502696  0.004147  0.164926  1
  Ni  Ni7  1  0.129134  0.119264  0.377436  1
  Ni  Ni8  1  0.499181  0.499594  0.000580  1
  Ni  Ni9  1  0.502766  0.498288  0.164898  1
  Ni  Ni10  1  0.499871  -0.000130  0.500067  1
  Ni  Ni11  1  0.131019  0.120421  0.709264  1
  Ni  Ni12  1  0.499892  0.500048  0.500059  1
  Ni  Ni13  1  0.497886  0.996095  0.834811  1
  Ni  Ni14  1  0.869946  0.880454  0.289712  1
  Ni  Ni15  1  0.497816  0.501755  0.834847  1
  Ni  Ni16  1  0.869923  0.879789  0.623509  1
  Ni  Ni17  1  0.862312  0.881439  0.958153  1
  O  O18  1  0.281933  0.256654  0.084979  1
  O  O19  1  0.281896  0.247390  0.241060  1
  O  O20  1  0.282154  0.706034  0.084787  1
  O  O21  1  0.730031  0.254324  0.087134  1
  O  O22  1  0.267790  0.246539  0.423133  1
  O  O23  1  0.263622  0.758476  0.239642  1
  O  O24  1  0.270831  0.245026  0.579718  1
  O  O25  1  0.730814  0.279901  0.243251  1
  O  O26  1  0.267643  0.716322  0.423071  1
  O  O27  1  0.717992  0.750627  0.093635  1
  O  O28  1  0.723826  0.247712  0.426890  1
  O  O29  1  0.730934  0.759615  0.243169  1
  O  O30  1  0.268143  0.240963  0.755314  1
  O  O31  1  0.276165  0.752459  0.572957  1
  O  O32  1  0.732161  0.283160  0.577040  1
  O  O33  1  0.268081  0.724875  0.755232  1
  O  O34  1  0.280599  0.253767  0.903974  1
  O  O35  1  0.727420  0.754914  0.420913  1
  O  O36  1  0.746736  0.241644  0.756629  1
  O  O37  1  0.732029  0.753736  0.577006  1
  O  O38  1  0.269674  0.742144  0.915779  1
  O  O39  1  0.715564  0.288911  0.917265  1
  O  O40  1  0.717982  0.750099  0.760697  1
  O  O41  1  0.715287  0.744843  0.917090  1
