# generated using pymatgen
data_Ba2CaCuAg2F14
_symmetry_space_group_name_H-M   'P 1'
_cell_length_a   5.57919379
_cell_length_b   7.62838465
_cell_length_c   15.37207221
_cell_angle_alpha   91.14326229
_cell_angle_beta   90.09005377
_cell_angle_gamma   111.41122001
_symmetry_Int_Tables_number   1
_chemical_formula_structural   Ba2CaCuAg2F14
_chemical_formula_sum   'Ba4 Ca2 Cu2 Ag4 F28'
_cell_volume   608.93748082
_cell_formula_units_Z   2
loop_
 _symmetry_equiv_pos_site_id
 _symmetry_equiv_pos_as_xyz
  1  'x, y, z'
loop_
 _atom_site_type_symbol
 _atom_site_label
 _atom_site_symmetry_multiplicity
 _atom_site_fract_x
 _atom_site_fract_y
 _atom_site_fract_z
 _atom_site_occupancy
  Ba  Ba0  1  0.115484  0.382547  0.624978  1
  Ba  Ba1  1  0.265259  0.381631  0.124201  1
  Ba  Ba2  1  0.887633  0.618248  0.374842  1
  Ba  Ba3  1  0.731219  0.620471  0.874345  1
  Ca  Ca4  1  0.417653  0.002875  0.750746  1
  Ca  Ca5  1  0.584979  0.003009  0.250607  1
  Cu  Cu6  1  0.495519  0.995390  0.000304  1
  Cu  Cu7  1  0.500686  0.997863  0.500298  1
  Ag  Ag8  1  0.091578  0.242417  0.875612  1
  Ag  Ag9  1  0.908917  0.761591  0.124662  1
  Ag  Ag10  1  0.148195  0.240385  0.375299  1
  Ag  Ag11  1  0.854384  0.760461  0.625337  1
  F  F12  1  0.898820  0.963911  0.341125  1
  F  F13  1  0.868165  0.279419  0.460744  1
  F  F14  1  0.134566  0.721862  0.539683  1
  F  F15  1  0.640012  0.477633  0.595015  1
  F  F16  1  0.612962  0.090988  0.613067  1
  F  F17  1  0.519519  0.906922  0.886633  1
  F  F18  1  0.411213  0.280663  0.961344  1
  F  F19  1  0.933922  0.037237  0.159070  1
  F  F20  1  0.374358  0.330995  0.771224  1
  F  F21  1  0.364792  0.522198  0.406306  1
  F  F22  1  0.810157  0.248541  0.781312  1
  F  F23  1  0.154452  0.522878  0.908061  1
  F  F24  1  0.434708  0.246531  0.281429  1
  F  F25  1  0.190020  0.757777  0.220038  1
  F  F26  1  0.474569  0.090000  0.113282  1
  F  F27  1  0.626388  0.672929  0.226619  1
  F  F28  1  0.141185  0.838071  0.008020  1
  F  F29  1  0.101981  0.037418  0.659365  1
  F  F30  1  0.844828  0.155221  0.988805  1
  F  F31  1  0.692892  0.839451  0.510703  1
  F  F32  1  0.587478  0.728777  0.040022  1
  F  F33  1  0.569102  0.757439  0.719003  1
  F  F34  1  0.952078  0.328917  0.271367  1
  F  F35  1  0.308982  0.155560  0.488921  1
  F  F36  1  0.389923  0.906437  0.387342  1
  F  F37  1  0.067715  0.967270  0.841573  1
  F  F38  1  0.051472  0.674865  0.728477  1
  F  F39  1  0.839159  0.478886  0.094233  1
