# generated using pymatgen
data_Mg3Si3(BiO6)2
_symmetry_space_group_name_H-M   'P 1'
_cell_length_a   10.80909682
_cell_length_b   10.80909713
_cell_length_c   10.80909676
_cell_angle_alpha   109.47122190
_cell_angle_beta   109.47122252
_cell_angle_gamma   109.47121822
_symmetry_Int_Tables_number   1
_chemical_formula_structural   Mg3Si3(BiO6)2
_chemical_formula_sum   'Mg12 Si12 Bi8 O48'
_cell_volume   972.17922558
_cell_formula_units_Z   4
loop_
 _symmetry_equiv_pos_site_id
 _symmetry_equiv_pos_as_xyz
  1  'x, y, z'
loop_
 _atom_site_type_symbol
 _atom_site_label
 _atom_site_symmetry_multiplicity
 _atom_site_fract_x
 _atom_site_fract_y
 _atom_site_fract_z
 _atom_site_occupancy
  Mg  Mg0  1  0.375000  0.750000  0.125000  1
  Mg  Mg1  1  0.125000  0.250000  0.375000  1
  Mg  Mg2  1  0.375000  0.125000  0.250000  1
  Mg  Mg3  1  0.125000  0.375000  0.750000  1
  Mg  Mg4  1  0.875000  0.750000  0.625000  1
  Mg  Mg5  1  0.750000  0.125000  0.375000  1
  Mg  Mg6  1  0.750000  0.625000  0.875000  1
  Mg  Mg7  1  0.625000  0.250000  0.875000  1
  Mg  Mg8  1  0.250000  0.875000  0.625000  1
  Mg  Mg9  1  0.875000  0.625000  0.250000  1
  Mg  Mg10  1  0.625000  0.875000  0.750000  1
  Mg  Mg11  1  0.250000  0.375000  0.125000  1
  Si  Si12  1  0.250000  0.125000  0.875000  1
  Si  Si13  1  0.750000  0.875000  0.125000  1
  Si  Si14  1  0.375000  0.250000  0.625000  1
  Si  Si15  1  0.625000  0.375000  0.250000  1
  Si  Si16  1  0.125000  0.750000  0.875000  1
  Si  Si17  1  0.875000  0.125000  0.750000  1
  Si  Si18  1  0.750000  0.375000  0.625000  1
  Si  Si19  1  0.375000  0.625000  0.750000  1
  Si  Si20  1  0.125000  0.875000  0.250000  1
  Si  Si21  1  0.875000  0.250000  0.125000  1
  Si  Si22  1  0.625000  0.750000  0.375000  1
  Si  Si23  1  0.250000  0.625000  0.375000  1
  Bi  Bi24  1  0.000000  0.000000  0.000000  1
  Bi  Bi25  1  0.000000  0.500000  0.000000  1
  Bi  Bi26  1  0.000000  0.000000  0.500000  1
  Bi  Bi27  1  0.000000  0.500000  0.500000  1
  Bi  Bi28  1  0.500000  0.000000  0.500000  1
  Bi  Bi29  1  0.500000  0.500000  0.000000  1
  Bi  Bi30  1  0.500000  0.500000  0.500000  1
  Bi  Bi31  1  0.500000  0.000000  0.000000  1
  O  O32  1  0.265870  0.474734  0.367530  1
  O  O33  1  0.025266  0.291136  0.892796  1
  O  O34  1  0.132470  0.607204  0.898339  1
  O  O35  1  0.234130  0.601661  0.208864  1
  O  O36  1  0.234130  0.132470  0.025266  1
  O  O37  1  0.601661  0.208864  0.234130  1
  O  O38  1  0.607204  0.208864  0.474734  1
  O  O39  1  0.208864  0.234130  0.601661  1
  O  O40  1  0.892796  0.367530  0.601661  1
  O  O41  1  0.291136  0.898339  0.265870  1
  O  O42  1  0.898339  0.265870  0.291136  1
  O  O43  1  0.025266  0.234130  0.132470  1
  O  O44  1  0.208864  0.474734  0.607204  1
  O  O45  1  0.601661  0.892796  0.367530  1
  O  O46  1  0.132470  0.025266  0.234130  1
  O  O47  1  0.474734  0.607204  0.208864  1
  O  O48  1  0.367530  0.601661  0.892796  1
  O  O49  1  0.892796  0.025266  0.291136  1
  O  O50  1  0.607204  0.898339  0.132470  1
  O  O51  1  0.107204  0.632470  0.398339  1
  O  O52  1  0.898339  0.132470  0.607204  1
  O  O53  1  0.367530  0.265870  0.474734  1
  O  O54  1  0.291136  0.892796  0.025266  1
  O  O55  1  0.265870  0.291136  0.898339  1
  O  O56  1  0.734130  0.525266  0.632470  1
  O  O57  1  0.974734  0.708864  0.107204  1
  O  O58  1  0.867530  0.392796  0.101661  1
  O  O59  1  0.765870  0.398339  0.791136  1
  O  O60  1  0.765870  0.867530  0.974734  1
  O  O61  1  0.398339  0.791136  0.765870  1
  O  O62  1  0.392796  0.791136  0.525266  1
  O  O63  1  0.791136  0.765870  0.398339  1
  O  O64  1  0.734130  0.708864  0.101661  1
  O  O65  1  0.708864  0.107204  0.974734  1
  O  O66  1  0.632470  0.734130  0.525266  1
  O  O67  1  0.525266  0.632470  0.734130  1
  O  O68  1  0.101661  0.867530  0.392796  1
  O  O69  1  0.392796  0.101661  0.867530  1
  O  O70  1  0.107204  0.974734  0.708864  1
  O  O71  1  0.632470  0.398339  0.107204  1
  O  O72  1  0.525266  0.392796  0.791136  1
  O  O73  1  0.867530  0.974734  0.765870  1
  O  O74  1  0.398339  0.107204  0.632470  1
  O  O75  1  0.791136  0.525266  0.392796  1
  O  O76  1  0.974734  0.765870  0.867530  1
  O  O77  1  0.101661  0.734130  0.708864  1
  O  O78  1  0.708864  0.101661  0.734130  1
  O  O79  1  0.474734  0.367530  0.265870  1
