# generated using pymatgen
data_Mg(WO2)2
_symmetry_space_group_name_H-M   'P 1'
_cell_length_a   3.17600478
_cell_length_b   9.65437400
_cell_length_c   11.08450911
_cell_angle_alpha   90.00010080
_cell_angle_beta   89.99995979
_cell_angle_gamma   89.99999140
_symmetry_Int_Tables_number   1
_chemical_formula_structural   Mg(WO2)2
_chemical_formula_sum   'Mg4 W8 O16'
_cell_volume   339.87696459
_cell_formula_units_Z   4
loop_
 _symmetry_equiv_pos_site_id
 _symmetry_equiv_pos_as_xyz
  1  'x, y, z'
loop_
 _atom_site_type_symbol
 _atom_site_label
 _atom_site_symmetry_multiplicity
 _atom_site_fract_x
 _atom_site_fract_y
 _atom_site_fract_z
 _atom_site_occupancy
  Mg  Mg0  1  0.750009  0.247234  0.345091  1
  Mg  Mg1  1  0.249999  0.752792  0.654896  1
  Mg  Mg2  1  0.750008  0.747224  0.154911  1
  Mg  Mg3  1  0.249989  0.252798  0.845110  1
  W  W4  1  0.250000  0.395340  0.099279  1
  W  W5  1  0.749998  0.104665  0.599313  1
  W  W6  1  0.250001  0.895339  0.400715  1
  W  W7  1  0.749997  0.604664  0.900694  1
  W  W8  1  0.749999  0.548546  0.376699  1
  W  W9  1  0.250000  0.451444  0.623270  1
  W  W10  1  0.750000  0.048537  0.123298  1
  W  W11  1  0.249995  0.951448  0.876735  1
  O  O12  1  0.250001  0.898611  0.070754  1
  O  O13  1  0.750000  0.101384  0.929293  1
  O  O14  1  0.249996  0.398618  0.429245  1
  O  O15  1  0.750002  0.601382  0.570707  1
  O  O16  1  0.250000  0.080852  0.722406  1
  O  O17  1  0.750001  0.919150  0.277639  1
  O  O18  1  0.250005  0.580843  0.777582  1
  O  O19  1  0.750001  0.419166  0.222367  1
  O  O20  1  0.249997  0.616233  0.044422  1
  O  O21  1  0.750001  0.383736  0.955533  1
  O  O22  1  0.249997  0.116235  0.455572  1
  O  O23  1  0.749999  0.883743  0.544468  1
  O  O24  1  0.750000  0.812230  0.812405  1
  O  O25  1  0.249999  0.187776  0.187627  1
  O  O26  1  0.249997  0.687773  0.312367  1
  O  O27  1  0.750003  0.312235  0.687602  1
