# generated using pymatgen
data_Zn(MoO2)2
_symmetry_space_group_name_H-M   'P 1'
_cell_length_a   3.15853274
_cell_length_b   10.44376294
_cell_length_c   10.30181472
_cell_angle_alpha   90.00042375
_cell_angle_beta   89.98983956
_cell_angle_gamma   89.94604206
_symmetry_Int_Tables_number   1
_chemical_formula_structural   Zn(MoO2)2
_chemical_formula_sum   'Zn4 Mo8 O16'
_cell_volume   339.82546787
_cell_formula_units_Z   4
loop_
 _symmetry_equiv_pos_site_id
 _symmetry_equiv_pos_as_xyz
  1  'x, y, z'
loop_
 _atom_site_type_symbol
 _atom_site_label
 _atom_site_symmetry_multiplicity
 _atom_site_fract_x
 _atom_site_fract_y
 _atom_site_fract_z
 _atom_site_occupancy
  Zn  Zn0  1  0.453387  0.750136  0.146474  1
  Zn  Zn1  1  0.446314  0.250102  0.353166  1
  Zn  Zn2  1  0.553559  0.749819  0.646828  1
  Zn  Zn3  1  0.546734  0.249924  0.853531  1
  Mo  Mo4  1  0.800369  0.573133  0.382269  1
  Mo  Mo5  1  0.799655  0.072736  0.117937  1
  Mo  Mo6  1  0.199641  0.073258  0.617581  1
  Mo  Mo7  1  0.800106  0.427009  0.117939  1
  Mo  Mo8  1  0.199427  0.426861  0.617713  1
  Mo  Mo9  1  0.800652  0.926751  0.382440  1
  Mo  Mo10  1  0.200495  0.927265  0.882047  1
  Mo  Mo11  1  0.199665  0.572987  0.882069  1
  O  O12  1  0.301023  0.888046  0.518869  1
  O  O13  1  0.699298  0.111960  0.481150  1
  O  O14  1  0.305955  0.999307  0.249966  1
  O  O15  1  0.700384  0.888065  0.018180  1
  O  O16  1  0.699159  0.611928  0.018321  1
  O  O17  1  0.924216  0.249863  0.225284  1
  O  O18  1  0.299775  0.111940  0.981806  1
  O  O19  1  0.071355  0.250111  0.725158  1
  O  O20  1  0.306145  0.499993  0.250134  1
  O  O21  1  0.694281  0.000728  0.750056  1
  O  O22  1  0.300479  0.612014  0.518710  1
  O  O23  1  0.075668  0.750128  0.774710  1
  O  O24  1  0.928767  0.749902  0.274847  1
  O  O25  1  0.693621  0.499986  0.749865  1
  O  O26  1  0.300589  0.388071  0.981686  1
  O  O27  1  0.699279  0.387975  0.481267  1
