# generated using pymatgen
data_TiZnMo(PO4)3
_symmetry_space_group_name_H-M   'P 1'
_cell_length_a   8.68517302
_cell_length_b   8.68516852
_cell_length_c   8.68516143
_cell_angle_alpha   60.50476225
_cell_angle_beta   60.50476325
_cell_angle_gamma   60.50472409
_symmetry_Int_Tables_number   1
_chemical_formula_structural   TiZnMo(PO4)3
_chemical_formula_sum   'Ti2 Zn2 Mo2 P6 O24'
_cell_volume   468.53878836
_cell_formula_units_Z   2
loop_
 _symmetry_equiv_pos_site_id
 _symmetry_equiv_pos_as_xyz
  1  'x, y, z'
loop_
 _atom_site_type_symbol
 _atom_site_label
 _atom_site_symmetry_multiplicity
 _atom_site_fract_x
 _atom_site_fract_y
 _atom_site_fract_z
 _atom_site_occupancy
  Ti  Ti0  1  0.146245  0.146244  0.146243  1
  Ti  Ti1  1  0.646243  0.646244  0.646246  1
  Zn  Zn2  1  0.000991  0.000991  0.000990  1
  Zn  Zn3  1  0.500990  0.500991  0.500991  1
  Mo  Mo4  1  0.357744  0.357745  0.357743  1
  Mo  Mo5  1  0.857744  0.857745  0.857743  1
  P  P6  1  0.042844  0.449793  0.757102  1
  P  P7  1  0.449794  0.757102  0.042845  1
  P  P8  1  0.757101  0.042845  0.449795  1
  P  P9  1  0.257103  0.949792  0.542845  1
  P  P10  1  0.542845  0.257103  0.949792  1
  P  P11  1  0.949794  0.542845  0.257103  1
  O  O12  1  0.096454  0.503985  0.327186  1
  O  O13  1  0.327186  0.096454  0.503985  1
  O  O14  1  0.052812  0.254642  0.916515  1
  O  O15  1  0.503984  0.327186  0.096452  1
  O  O16  1  0.003985  0.596452  0.827186  1
  O  O17  1  0.237377  0.434013  0.600784  1
  O  O18  1  0.254640  0.916516  0.052812  1
  O  O19  1  0.434012  0.600785  0.237377  1
  O  O20  1  0.190861  0.001916  0.378741  1
  O  O21  1  0.600785  0.237376  0.434013  1
  O  O22  1  0.100785  0.934013  0.737377  1
  O  O23  1  0.378738  0.190860  0.001916  1
  O  O24  1  0.596453  0.827185  0.003985  1
  O  O25  1  0.916515  0.052813  0.254640  1
  O  O26  1  0.416516  0.754639  0.552813  1
  O  O27  1  0.827184  0.003986  0.596453  1
  O  O28  1  0.552813  0.416514  0.754641  1
  O  O29  1  0.737378  0.100784  0.934012  1
  O  O30  1  0.754642  0.552812  0.416514  1
  O  O31  1  0.001916  0.378740  0.190861  1
  O  O32  1  0.501915  0.690860  0.878740  1
  O  O33  1  0.934013  0.737377  0.100785  1
  O  O34  1  0.690860  0.878740  0.501915  1
  O  O35  1  0.878739  0.501916  0.690861  1
