# generated using pymatgen
data_ZnSnP2O7
_symmetry_space_group_name_H-M   'P 1'
_cell_length_a   7.23991452
_cell_length_b   9.28987107
_cell_length_c   9.64819087
_cell_angle_alpha   90.00000000
_cell_angle_beta   114.65319905
_cell_angle_gamma   90.00000000
_symmetry_Int_Tables_number   1
_chemical_formula_structural   ZnSnP2O7
_chemical_formula_sum   'Zn4 Sn4 P8 O28'
_cell_volume   589.76750757
_cell_formula_units_Z   4
loop_
 _symmetry_equiv_pos_site_id
 _symmetry_equiv_pos_as_xyz
  1  'x, y, z'
loop_
 _atom_site_type_symbol
 _atom_site_label
 _atom_site_symmetry_multiplicity
 _atom_site_fract_x
 _atom_site_fract_y
 _atom_site_fract_z
 _atom_site_occupancy
  Zn  Zn0  1  0.105413  0.944854  0.803646  1
  Zn  Zn1  1  0.394587  0.444854  0.696354  1
  Zn  Zn2  1  0.605413  0.555146  0.303646  1
  Zn  Zn3  1  0.894587  0.055146  0.196354  1
  Sn  Sn4  1  0.351755  0.086973  0.581924  1
  Sn  Sn5  1  0.648245  0.913027  0.418076  1
  Sn  Sn6  1  0.148245  0.586973  0.918076  1
  Sn  Sn7  1  0.851755  0.413027  0.081924  1
  P  P8  1  0.177219  0.752351  0.269688  1
  P  P9  1  0.445826  0.210829  0.961309  1
  P  P10  1  0.677219  0.747649  0.769688  1
  P  P11  1  0.945826  0.289171  0.461309  1
  P  P12  1  0.322781  0.252351  0.230312  1
  P  P13  1  0.054174  0.710829  0.538691  1
  P  P14  1  0.554174  0.789171  0.038691  1
  P  P15  1  0.822781  0.247649  0.730312  1
  O  O16  1  0.348205  0.190830  0.080993  1
  O  O17  1  0.611309  0.590059  0.747122  1
  O  O18  1  0.111309  0.909941  0.247122  1
  O  O19  1  0.410416  0.364836  0.897791  1
  O  O20  1  0.651795  0.809170  0.919007  1
  O  O21  1  0.439660  0.150535  0.360093  1
  O  O22  1  0.589584  0.635164  0.102209  1
  O  O23  1  0.341165  0.095456  0.839556  1
  O  O24  1  0.179175  0.311214  0.546855  1
  O  O25  1  0.560340  0.849465  0.639907  1
  O  O26  1  0.939660  0.349465  0.860093  1
  O  O27  1  0.909378  0.760847  0.814570  1
  O  O28  1  0.590622  0.260847  0.685430  1
  O  O29  1  0.848205  0.309170  0.580993  1
  O  O30  1  0.060340  0.650535  0.139907  1
  O  O31  1  0.888691  0.090059  0.752878  1
  O  O32  1  0.090622  0.239153  0.185430  1
  O  O33  1  0.658835  0.904543  0.160444  1
  O  O34  1  0.679175  0.188786  0.046855  1
  O  O35  1  0.320825  0.811214  0.953145  1
  O  O36  1  0.089584  0.864836  0.602209  1
  O  O37  1  0.841165  0.404544  0.339556  1
  O  O38  1  0.158835  0.595457  0.660444  1
  O  O39  1  0.388691  0.409941  0.252878  1
  O  O40  1  0.409378  0.739153  0.314570  1
  O  O41  1  0.910416  0.135164  0.397791  1
  O  O42  1  0.820825  0.688786  0.453145  1
  O  O43  1  0.151795  0.690830  0.419007  1
