# generated using pymatgen
data_Cr3P3O13
_symmetry_space_group_name_H-M   'P 1'
_cell_length_a   6.25566896
_cell_length_b   7.44698837
_cell_length_c   10.53036699
_cell_angle_alpha   99.88949274
_cell_angle_beta   90.00000000
_cell_angle_gamma   90.00000000
_symmetry_Int_Tables_number   1
_chemical_formula_structural   Cr3P3O13
_chemical_formula_sum   'Cr6 P6 O26'
_cell_volume   483.27715295
_cell_formula_units_Z   2
loop_
 _symmetry_equiv_pos_site_id
 _symmetry_equiv_pos_as_xyz
  1  'x, y, z'
loop_
 _atom_site_type_symbol
 _atom_site_label
 _atom_site_symmetry_multiplicity
 _atom_site_fract_x
 _atom_site_fract_y
 _atom_site_fract_z
 _atom_site_occupancy
  Cr  Cr0  1  0.250000  0.369795  0.195357  1
  Cr  Cr1  1  0.750000  0.630205  0.804643  1
  Cr  Cr2  1  0.250000  0.775179  0.444115  1
  Cr  Cr3  1  0.500000  0.000000  0.000000  1
  Cr  Cr4  1  0.750000  0.224821  0.555885  1
  Cr  Cr5  1  0.000000  0.000000  0.000000  1
  P  P6  1  0.250000  0.213508  0.475975  1
  P  P7  1  0.750000  0.786492  0.524025  1
  P  P8  1  0.250000  0.744287  0.766150  1
  P  P9  1  0.750000  0.255713  0.233850  1
  P  P10  1  0.750000  0.304242  0.880423  1
  P  P11  1  0.250000  0.695758  0.119577  1
  O  O12  1  0.750000  0.346822  0.738912  1
  O  O13  1  0.553681  0.741087  0.436217  1
  O  O14  1  0.250000  0.803676  0.634649  1
  O  O15  1  0.546047  0.206759  0.909319  1
  O  O16  1  0.750000  0.658712  0.624476  1
  O  O17  1  0.750000  0.871923  0.908281  1
  O  O18  1  0.250000  0.341288  0.375524  1
  O  O19  1  0.046047  0.793241  0.090681  1
  O  O20  1  0.250000  0.013535  0.403465  1
  O  O21  1  0.750000  0.986465  0.596535  1
  O  O22  1  0.053645  0.630559  0.789154  1
  O  O23  1  0.250000  0.128077  0.091719  1
  O  O24  1  0.553645  0.369441  0.210846  1
  O  O25  1  0.750000  0.511305  0.949919  1
  O  O26  1  0.750000  0.196324  0.365351  1
  O  O27  1  0.453953  0.793241  0.090681  1
  O  O28  1  0.946319  0.741087  0.436217  1
  O  O29  1  0.446319  0.258913  0.563783  1
  O  O30  1  0.446355  0.630559  0.789154  1
  O  O31  1  0.250000  0.653178  0.261088  1
  O  O32  1  0.750000  0.080420  0.123524  1
  O  O33  1  0.250000  0.919580  0.876476  1
  O  O34  1  0.946355  0.369441  0.210846  1
  O  O35  1  0.953953  0.206759  0.909319  1
  O  O36  1  0.053681  0.258913  0.563783  1
  O  O37  1  0.250000  0.488695  0.050081  1
