# generated using pymatgen
data_Y4Co13Si2(SbO14)2
_symmetry_space_group_name_H-M   'P 1'
_cell_length_a   5.56957296
_cell_length_b   9.71729181
_cell_length_c   12.08976352
_cell_angle_alpha   87.74683998
_cell_angle_beta   76.68746459
_cell_angle_gamma   80.15951624
_symmetry_Int_Tables_number   1
_chemical_formula_structural   Y4Co13Si2(SbO14)2
_chemical_formula_sum   'Y4 Co13 Si2 Sb2 O28'
_cell_volume   627.36180035
_cell_formula_units_Z   1
loop_
 _symmetry_equiv_pos_site_id
 _symmetry_equiv_pos_as_xyz
  1  'x, y, z'
loop_
 _atom_site_type_symbol
 _atom_site_label
 _atom_site_symmetry_multiplicity
 _atom_site_fract_x
 _atom_site_fract_y
 _atom_site_fract_z
 _atom_site_occupancy
  Y  Y0  1  0.073249  0.660850  0.411998  1
  Y  Y1  1  0.514820  0.339121  0.412005  1
  Y  Y2  1  0.926751  0.339150  0.588002  1
  Y  Y3  1  0.485180  0.660879  0.587995  1
  Co  Co4  1  0.921127  0.620712  0.743838  1
  Co  Co5  1  0.675644  0.301535  0.125078  1
  Co  Co6  1  0.334877  0.379403  0.743845  1
  Co  Co7  1  0.078873  0.379288  0.256162  1
  Co  Co8  1  0.324356  0.698465  0.874922  1
  Co  Co9  1  0.288916  -0.000001  0.422022  1
  Co  Co10  1  0.199323  0.698445  0.125078  1
  Co  Co11  1  0.000000  -0.000000  -0.000000  1
  Co  Co12  1  0.424365  0.999946  0.151344  1
  Co  Co13  1  0.800677  0.301555  0.874922  1
  Co  Co14  1  0.665123  0.620597  0.256155  1
  Co  Co15  1  0.575635  0.000054  0.848656  1
  Co  Co16  1  0.711084  0.000001  0.577978  1
  Si  Si17  1  0.247106  0.277530  0.999960  1
  Si  Si18  1  0.752894  0.722470  0.000040  1
  Sb  Sb19  1  0.856902  0.000036  0.286252  1
  Sb  Sb20  1  0.143098  0.999964  0.713748  1
  O  O21  1  0.717858  0.404031  0.252427  1
  O  O22  1  0.121355  0.392369  0.416347  1
  O  O23  1  0.953156  0.339289  0.999988  1
  O  O24  1  0.294911  0.105103  0.999923  1
  O  O25  1  0.878645  0.607631  0.583653  1
  O  O26  1  0.282142  0.595969  0.747573  1
  O  O27  1  0.017022  0.109673  0.581449  1
  O  O28  1  0.982978  0.890327  0.418551  1
  O  O29  1  0.705089  0.894897  0.000077  1
  O  O30  1  0.118387  0.898017  0.154172  1
  O  O31  1  0.322029  0.335241  0.111857  1
  O  O32  1  0.029875  0.595906  0.252413  1
  O  O33  1  0.401418  0.890322  0.581446  1
  O  O34  1  0.727587  0.102006  0.154157  1
  O  O35  1  0.566106  0.664698  0.111891  1
  O  O36  1  0.046844  0.660711  0.000012  1
  O  O37  1  0.272413  0.897994  0.845843  1
  O  O38  1  0.881613  0.101983  0.845828  1
  O  O39  1  0.598582  0.109678  0.418554  1
  O  O40  1  0.126736  0.113136  0.290495  1
  O  O41  1  0.873264  0.886864  0.709505  1
  O  O42  1  0.433893  0.335302  0.888109  1
  O  O43  1  0.417194  0.113058  0.709479  1
  O  O44  1  0.537636  0.392398  0.583679  1
  O  O45  1  0.677971  0.664759  0.888143  1
  O  O46  1  0.582806  0.886942  0.290521  1
  O  O47  1  0.970125  0.404094  0.747587  1
  O  O48  1  0.462364  0.607602  0.416321  1
