# generated using pymatgen
data_Zn2Cr3O8
_symmetry_space_group_name_H-M   'P 1'
_cell_length_a   5.87467397
_cell_length_b   5.87467360
_cell_length_c   9.53574105
_cell_angle_alpha   90.00000000
_cell_angle_beta   90.00000000
_cell_angle_gamma   120.00000204
_symmetry_Int_Tables_number   1
_chemical_formula_structural   Zn2Cr3O8
_chemical_formula_sum   'Zn4 Cr6 O16'
_cell_volume   285.00506808
_cell_formula_units_Z   2
loop_
 _symmetry_equiv_pos_site_id
 _symmetry_equiv_pos_as_xyz
  1  'x, y, z'
loop_
 _atom_site_type_symbol
 _atom_site_label
 _atom_site_symmetry_multiplicity
 _atom_site_fract_x
 _atom_site_fract_y
 _atom_site_fract_z
 _atom_site_occupancy
  Zn  Zn0  1  0.666667  0.333334  0.026645  1
  Zn  Zn1  1  0.333333  0.666666  0.526646  1
  Zn  Zn2  1  0.666667  0.333334  0.425506  1
  Zn  Zn3  1  0.333333  0.666666  0.925507  1
  Cr  Cr4  1  0.673178  0.836590  0.243110  1
  Cr  Cr5  1  0.836591  0.163411  0.743110  1
  Cr  Cr6  1  0.163411  0.326823  0.243110  1
  Cr  Cr7  1  0.836589  0.673178  0.743110  1
  Cr  Cr8  1  0.326823  0.163411  0.743110  1
  Cr  Cr9  1  0.163411  0.836590  0.243110  1
  O  O10  1  0.837733  0.162268  0.147413  1
  O  O11  1  0.675464  0.837733  0.647412  1
  O  O12  1  0.162268  0.324537  0.647412  1
  O  O13  1  0.837732  0.675464  0.147413  1
  O  O14  1  0.324536  0.162268  0.147413  1
  O  O15  1  0.162268  0.837733  0.647412  1
  O  O16  1  0.518465  0.481534  0.861983  1
  O  O17  1  0.036932  0.518465  0.361982  1
  O  O18  1  0.481535  0.963069  0.361982  1
  O  O19  1  0.518465  0.036932  0.861983  1
  O  O20  1  -0.000000  -0.000000  0.350935  1
  O  O21  1  -0.000000  -0.000000  0.850935  1
  O  O22  1  0.333333  0.666666  0.132900  1
  O  O23  1  0.963067  0.481534  0.861983  1
  O  O24  1  0.481534  0.518465  0.361982  1
  O  O25  1  0.666667  0.333334  0.632900  1
