# generated using pymatgen
data_CaTi2O4
_symmetry_space_group_name_H-M   'P 1'
_cell_length_a   3.03139347
_cell_length_b   7.70084718
_cell_length_c   7.69374021
_cell_angle_alpha   79.22190409
_cell_angle_beta   78.57574583
_cell_angle_gamma   78.57274946
_symmetry_Int_Tables_number   1
_chemical_formula_structural   CaTi2O4
_chemical_formula_sum   'Ca2 Ti4 O8'
_cell_volume   170.50372446
_cell_formula_units_Z   2
loop_
 _symmetry_equiv_pos_site_id
 _symmetry_equiv_pos_as_xyz
  1  'x, y, z'
loop_
 _atom_site_type_symbol
 _atom_site_label
 _atom_site_symmetry_multiplicity
 _atom_site_fract_x
 _atom_site_fract_y
 _atom_site_fract_z
 _atom_site_occupancy
  Ca  Ca0  1  0.355241  0.126876  0.169318  1
  Ca  Ca1  1  0.644077  0.848056  0.867097  1
  Ti  Ti2  1  0.635291  0.175016  0.556274  1
  Ti  Ti3  1  0.150930  0.512762  0.205247  1
  Ti  Ti4  1  0.855281  0.462728  0.831522  1
  Ti  Ti5  1  0.362959  0.801084  0.480176  1
  O  O6  1  0.852235  0.672016  0.631540  1
  O  O7  1  0.467961  0.312409  0.757067  1
  O  O8  1  0.537072  0.663596  0.278518  1
  O  O9  1  0.146536  0.304380  0.405541  1
  O  O10  1  0.168874  -0.000312  0.664667  1
  O  O11  1  0.780022  0.357039  0.094403  1
  O  O12  1  0.830568  0.975389  0.370806  1
  O  O13  1  0.223110  0.618289  0.941751  1
