# generated using pymatgen
data_Ti4ZnO9
_symmetry_space_group_name_H-M   'P 1'
_cell_length_a   5.01722186
_cell_length_b   8.51505314
_cell_length_c   8.51505314
_cell_angle_alpha   90.00000000
_cell_angle_beta   90.00000000
_cell_angle_gamma   90.00000000
_symmetry_Int_Tables_number   1
_chemical_formula_structural   Ti4ZnO9
_chemical_formula_sum   'Ti8 Zn2 O18'
_cell_volume   363.77934030
_cell_formula_units_Z   2
loop_
 _symmetry_equiv_pos_site_id
 _symmetry_equiv_pos_as_xyz
  1  'x, y, z'
loop_
 _atom_site_type_symbol
 _atom_site_label
 _atom_site_symmetry_multiplicity
 _atom_site_fract_x
 _atom_site_fract_y
 _atom_site_fract_z
 _atom_site_occupancy
  Ti  Ti0  1  0.623339  0.530275  0.338959  1
  Ti  Ti1  1  0.376662  0.838958  0.469726  1
  Ti  Ti2  1  0.623339  0.338958  0.969726  1
  Ti  Ti3  1  0.376662  0.030274  0.838958  1
  Ti  Ti4  1  0.623339  0.969726  0.161041  1
  Ti  Ti5  1  0.623339  0.161042  0.530275  1
  Ti  Ti6  1  0.376662  0.469726  0.661041  1
  Ti  Ti7  1  0.376662  0.661041  0.030274  1
  Zn  Zn8  1  0.035104  0.250000  0.250000  1
  Zn  Zn9  1  0.964897  0.750000  0.749999  1
  O  O10  1  0.499999  0.750000  0.250000  1
  O  O11  1  0.499999  0.250001  0.750000  1
  O  O12  1  0.050893  0.683844  0.977450  1
  O  O13  1  0.050893  0.522551  0.683843  1
  O  O14  1  0.050893  0.977450  0.816157  1
  O  O15  1  0.050893  0.816157  0.522550  1
  O  O16  1  0.949108  0.316157  0.022550  1
  O  O17  1  0.949108  0.477449  0.316157  1
  O  O18  1  0.949108  0.022550  0.183843  1
  O  O19  1  0.949108  0.183843  0.477449  1
  O  O20  1  0.474920  0.040240  0.357423  1
  O  O21  1  0.474920  0.142576  0.040241  1
  O  O22  1  0.474920  0.357423  0.459760  1
  O  O23  1  0.474920  0.459760  0.142577  1
  O  O24  1  0.525079  0.540240  0.857423  1
  O  O25  1  0.525079  0.857423  0.959760  1
  O  O26  1  0.525079  0.642577  0.540240  1
  O  O27  1  0.525079  0.959759  0.642577  1
