# generated using pymatgen
data_Ca(NiO2)2
_symmetry_space_group_name_H-M   'P 1'
_cell_length_a   6.10131479
_cell_length_b   6.08048664
_cell_length_c   6.06743265
_cell_angle_alpha   90.65096527
_cell_angle_beta   119.31233473
_cell_angle_gamma   119.49449197
_symmetry_Int_Tables_number   1
_chemical_formula_structural   Ca(NiO2)2
_chemical_formula_sum   'Ca2 Ni4 O8'
_cell_volume   161.11497171
_cell_formula_units_Z   2
loop_
 _symmetry_equiv_pos_site_id
 _symmetry_equiv_pos_as_xyz
  1  'x, y, z'
loop_
 _atom_site_type_symbol
 _atom_site_label
 _atom_site_symmetry_multiplicity
 _atom_site_fract_x
 _atom_site_fract_y
 _atom_site_fract_z
 _atom_site_occupancy
  Ca  Ca0  1  0.246557  0.122522  0.875700  1
  Ca  Ca1  1  0.753455  0.877494  0.124330  1
  Ni  Ni2  1  0.499996  0.999995  0.500002  1
  Ni  Ni3  1  0.500004  0.500002  0.500005  1
  Ni  Ni4  1  0.999987  0.499993  0.999983  1
  Ni  Ni5  1  0.000001  0.500000  0.499998  1
  O  O6  1  0.040675  0.728621  0.260549  1
  O  O7  1  0.436438  0.722050  0.691987  1
  O  O8  1  0.486133  0.744974  0.293363  1
  O  O9  1  0.953042  0.687493  0.742204  1
  O  O10  1  0.513868  0.255024  0.706648  1
  O  O11  1  0.563568  0.277948  0.308028  1
  O  O12  1  0.046963  0.312512  0.257777  1
  O  O13  1  0.959312  0.271370  0.739427  1
