# generated using pymatgen
data_Ba2AlCu3O8
_symmetry_space_group_name_H-M   'P 1'
_cell_length_a   3.82507803
_cell_length_b   3.82505989
_cell_length_c   11.62977474
_cell_angle_alpha   90.00005524
_cell_angle_beta   90.00004031
_cell_angle_gamma   90.00003026
_symmetry_Int_Tables_number   1
_chemical_formula_structural   Ba2AlCu3O8
_chemical_formula_sum   'Ba2 Al1 Cu3 O8'
_cell_volume   170.15700833
_cell_formula_units_Z   1
loop_
 _symmetry_equiv_pos_site_id
 _symmetry_equiv_pos_as_xyz
  1  'x, y, z'
loop_
 _atom_site_type_symbol
 _atom_site_label
 _atom_site_symmetry_multiplicity
 _atom_site_fract_x
 _atom_site_fract_y
 _atom_site_fract_z
 _atom_site_occupancy
  Ba  Ba0  1  0.500000  0.500000  0.171781  1
  Ba  Ba1  1  0.500000  0.500000  0.828056  1
  Al  Al2  1  0.500000  0.500000  0.500149  1
  Cu  Cu3  1  1.000000  1.000000  0.355836  1
  Cu  Cu4  1  0.000000  0.000000  0.000155  1
  Cu  Cu5  1  0.000000  0.000000  0.644199  1
  O  O6  1  0.000000  0.500000  0.397444  1
  O  O7  1  0.500000  0.000000  0.397444  1
  O  O8  1  0.500002  0.000000  0.999934  1
  O  O9  1  0.000000  0.000000  0.182846  1
  O  O10  1  1.000000  0.500000  0.602501  1
  O  O11  1  0.500000  1.000000  0.602501  1
  O  O12  1  0.000000  0.000000  0.817222  1
  O  O13  1  0.000000  0.500000  0.999934  1
