# generated using pymatgen
data_MgSi2SnO6
_symmetry_space_group_name_H-M   'P 1'
_cell_length_a   5.44700391
_cell_length_b   9.25249890
_cell_length_c   19.41605178
_cell_angle_alpha   90.00000000
_cell_angle_beta   90.00000000
_cell_angle_gamma   90.00000000
_symmetry_Int_Tables_number   1
_chemical_formula_structural   MgSi2SnO6
_chemical_formula_sum   'Mg8 Si16 Sn8 O48'
_cell_volume   978.53789909
_cell_formula_units_Z   8
loop_
 _symmetry_equiv_pos_site_id
 _symmetry_equiv_pos_as_xyz
  1  'x, y, z'
loop_
 _atom_site_type_symbol
 _atom_site_label
 _atom_site_symmetry_multiplicity
 _atom_site_fract_x
 _atom_site_fract_y
 _atom_site_fract_z
 _atom_site_occupancy
  Mg  Mg0  1  0.620366  0.148396  0.625480  1
  Mg  Mg1  1  0.379634  0.851604  0.374520  1
  Mg  Mg2  1  0.620366  0.648396  0.874520  1
  Mg  Mg3  1  0.120366  0.851604  0.874520  1
  Mg  Mg4  1  0.879634  0.148396  0.125480  1
  Mg  Mg5  1  0.379634  0.351604  0.125480  1
  Mg  Mg6  1  0.120366  0.351604  0.625480  1
  Mg  Mg7  1  0.879634  0.648396  0.374520  1
  Si  Si8  1  0.523592  0.660097  0.234814  1
  Si  Si9  1  0.695830  0.838784  0.516186  1
  Si  Si10  1  0.804170  0.838784  0.016186  1
  Si  Si11  1  0.976408  0.160097  0.765186  1
  Si  Si12  1  0.023592  0.339903  0.265186  1
  Si  Si13  1  0.476408  0.839903  0.734814  1
  Si  Si14  1  0.195830  0.661216  0.516186  1
  Si  Si15  1  0.695830  0.338784  0.983814  1
  Si  Si16  1  0.804170  0.338784  0.483814  1
  Si  Si17  1  0.976408  0.660097  0.734814  1
  Si  Si18  1  0.476408  0.339903  0.765186  1
  Si  Si19  1  0.523592  0.160097  0.265186  1
  Si  Si20  1  0.304170  0.161216  0.483814  1
  Si  Si21  1  0.023592  0.839903  0.234814  1
  Si  Si22  1  0.304170  0.661216  0.016186  1
  Si  Si23  1  0.195830  0.161216  0.983814  1
  Sn  Sn24  1  0.378114  0.968588  0.120259  1
  Sn  Sn25  1  0.621886  0.031412  0.879741  1
  Sn  Sn26  1  0.878114  0.031412  0.379741  1
  Sn  Sn27  1  0.121886  0.968588  0.620259  1
  Sn  Sn28  1  0.378114  0.468588  0.379741  1
  Sn  Sn29  1  0.621886  0.531412  0.620259  1
  Sn  Sn30  1  0.878114  0.531412  0.120259  1
  Sn  Sn31  1  0.121886  0.468588  0.879741  1
  O  O32  1  0.964118  0.506212  0.694689  1
  O  O33  1  0.229936  0.006749  0.946432  1
  O  O34  1  0.035882  0.493788  0.305311  1
  O  O35  1  0.705527  0.331442  0.069187  1
  O  O36  1  0.205527  0.168558  0.069187  1
  O  O37  1  0.932529  0.235550  0.958693  1
  O  O38  1  0.958706  0.660926  0.819966  1
  O  O39  1  0.041294  0.839074  0.319966  1
  O  O40  1  0.705527  0.831442  0.430813  1
  O  O41  1  0.958706  0.160926  0.680034  1
  O  O42  1  0.464118  0.493788  0.805311  1
  O  O43  1  0.794473  0.331442  0.569187  1
  O  O44  1  0.770064  0.993251  0.053568  1
  O  O45  1  0.458706  0.839074  0.819966  1
  O  O46  1  0.535882  0.006212  0.305311  1
  O  O47  1  0.229936  0.506749  0.553568  1
  O  O48  1  0.464118  0.993788  0.694689  1
  O  O49  1  0.231878  0.743664  0.710561  1
  O  O50  1  0.268122  0.743664  0.210561  1
  O  O51  1  0.567471  0.735550  0.041307  1
  O  O52  1  0.794473  0.831442  0.930813  1
  O  O53  1  0.541294  0.660926  0.319966  1
  O  O54  1  0.729936  0.493251  0.946432  1
  O  O55  1  0.231878  0.243664  0.789439  1
  O  O56  1  0.294473  0.168558  0.569187  1
  O  O57  1  0.541294  0.160926  0.180034  1
  O  O58  1  0.770064  0.493251  0.446432  1
  O  O59  1  0.205527  0.668558  0.430813  1
  O  O60  1  0.270064  0.506749  0.053568  1
  O  O61  1  0.731878  0.756336  0.710561  1
  O  O62  1  0.035882  0.993788  0.194689  1
  O  O63  1  0.768122  0.756336  0.210561  1
  O  O64  1  0.768122  0.256337  0.289439  1
  O  O65  1  0.729936  0.993251  0.553568  1
  O  O66  1  0.294473  0.668558  0.930813  1
  O  O67  1  0.270064  0.006749  0.446432  1
  O  O68  1  0.268122  0.243664  0.289439  1
  O  O69  1  0.067471  0.764450  0.041307  1
  O  O70  1  0.432529  0.764450  0.541307  1
  O  O71  1  0.731878  0.256337  0.789439  1
  O  O72  1  0.432529  0.264450  0.958693  1
  O  O73  1  0.567471  0.235550  0.458693  1
  O  O74  1  0.067471  0.264450  0.458693  1
  O  O75  1  0.458706  0.339074  0.680034  1
  O  O76  1  0.535882  0.506212  0.194689  1
  O  O77  1  0.932529  0.735550  0.541307  1
  O  O78  1  0.041294  0.339074  0.180034  1
  O  O79  1  0.964118  0.006212  0.805311  1
