# generated using pymatgen
data_Ba2Mg3Tl2(WO3)4
_symmetry_space_group_name_H-M   'P 1'
_cell_length_a   3.98160773
_cell_length_b   3.98160767
_cell_length_c   22.23174391
_cell_angle_alpha   95.13758921
_cell_angle_beta   95.13758990
_cell_angle_gamma   89.99999501
_symmetry_Int_Tables_number   1
_chemical_formula_structural   Ba2Mg3Tl2(WO3)4
_chemical_formula_sum   'Ba2 Mg3 Tl2 W4 O12'
_cell_volume   349.60667793
_cell_formula_units_Z   1
loop_
 _symmetry_equiv_pos_site_id
 _symmetry_equiv_pos_as_xyz
  1  'x, y, z'
loop_
 _atom_site_type_symbol
 _atom_site_label
 _atom_site_symmetry_multiplicity
 _atom_site_fract_x
 _atom_site_fract_y
 _atom_site_fract_z
 _atom_site_occupancy
  Ba  Ba0  1  0.164948  0.164948  0.329894  1
  Ba  Ba1  1  0.835052  0.835052  0.670106  1
  Mg  Mg2  1  0.080965  0.080965  0.161930  1
  Mg  Mg3  1  0.919035  0.919035  0.838070  1
  Mg  Mg4  1  0.000000  0.000000  0.000000  1
  Tl  Tl5  1  0.725038  0.725038  0.450076  1
  Tl  Tl6  1  0.274962  0.274962  0.549924  1
  W  W7  1  0.544382  0.544382  0.088764  1
  W  W8  1  0.397178  0.397178  0.794356  1
  W  W9  1  0.602822  0.602822  0.205644  1
  W  W10  1  0.455618  0.455618  0.911236  1
  O  O11  1  0.393230  0.893230  0.786460  1
  O  O12  1  0.531655  0.031655  0.063311  1
  O  O13  1  0.221048  0.221048  0.442096  1
  O  O14  1  0.968345  0.468345  0.936689  1
  O  O15  1  0.778952  0.778952  0.557904  1
  O  O16  1  0.106770  0.606770  0.213540  1
  O  O17  1  0.606770  0.106770  0.213540  1
  O  O18  1  0.350691  0.350691  0.701381  1
  O  O19  1  0.893230  0.393230  0.786460  1
  O  O20  1  0.031655  0.531655  0.063311  1
  O  O21  1  0.468345  0.968345  0.936689  1
  O  O22  1  0.649309  0.649309  0.298619  1
