# generated using pymatgen
data_Ba2YSn2F11
_symmetry_space_group_name_H-M   'P 1'
_cell_length_a   8.14305984
_cell_length_b   8.14305906
_cell_length_c   14.61123756
_cell_angle_alpha   90.00000000
_cell_angle_beta   90.00000000
_cell_angle_gamma   120.00000517
_symmetry_Int_Tables_number   1
_chemical_formula_structural   Ba2YSn2F11
_chemical_formula_sum   'Ba6 Y3 Sn6 F33'
_cell_volume   839.05962183
_cell_formula_units_Z   3
loop_
 _symmetry_equiv_pos_site_id
 _symmetry_equiv_pos_as_xyz
  1  'x, y, z'
loop_
 _atom_site_type_symbol
 _atom_site_label
 _atom_site_symmetry_multiplicity
 _atom_site_fract_x
 _atom_site_fract_y
 _atom_site_fract_z
 _atom_site_occupancy
  Ba  Ba0  1  0.511457  0.195035  0.671357  1
  Ba  Ba1  1  0.119413  0.517452  0.828502  1
  Ba  Ba2  1  0.683577  0.488543  0.004690  1
  Ba  Ba3  1  0.482548  0.601960  0.495168  1
  Ba  Ba4  1  0.398040  0.880587  0.161835  1
  Ba  Ba5  1  0.804965  0.316423  0.338023  1
  Y  Y6  1  0.187869  0.044249  0.894722  1
  Y  Y7  1  0.856381  0.812131  0.228055  1
  Y  Y8  1  0.955751  0.143619  0.561388  1
  Sn  Sn9  1  0.611373  0.977991  0.899790  1
  Sn  Sn10  1  0.747847  0.768486  0.740741  1
  Sn  Sn11  1  0.231514  0.979361  0.407407  1
  Sn  Sn12  1  0.366619  0.388627  0.233123  1
  Sn  Sn13  1  0.020639  0.252153  0.074074  1
  Sn  Sn14  1  0.022009  0.633381  0.566456  1
  F  F15  1  0.708901  0.120733  0.042338  1
  F  F16  1  0.451044  0.659275  0.929520  1
  F  F17  1  0.411831  0.291099  0.375671  1
  F  F18  1  0.085823  0.421531  0.472265  1
  F  F19  1  0.565131  0.271514  0.190621  1
  F  F20  1  0.902736  0.606519  0.159992  1
  F  F21  1  0.578469  0.664292  0.138932  1
  F  F22  1  0.393481  0.296216  0.826659  1
  F  F23  1  0.706382  0.434869  0.523954  1
  F  F24  1  0.303631  0.249905  0.015456  1
  F  F25  1  0.335708  0.914177  0.805599  1
  F  F26  1  0.879267  0.588169  0.709005  1
  F  F27  1  0.359734  0.955472  0.981892  1
  F  F28  1  0.030332  0.495797  0.999838  1
  F  F29  1  0.595738  0.640266  0.315225  1
  F  F30  1  0.340725  0.791768  0.596186  1
  F  F31  1  0.999266  0.169798  0.921010  1
  F  F32  1  0.946272  0.696369  0.348789  1
  F  F33  1  0.985857  0.047459  0.415270  1
  F  F34  1  0.044528  0.404262  0.648558  1
  F  F35  1  0.061602  0.014143  0.748604  1
  F  F36  1  0.504203  0.534534  0.666505  1
  F  F37  1  0.465466  0.969668  0.333171  1
  F  F38  1  0.170533  0.000734  0.254343  1
  F  F39  1  0.750095  0.053728  0.682123  1
  F  F40  1  0.728486  0.293618  0.857288  1
  F  F41  1  0.208232  0.548956  0.262853  1
  F  F42  1  0.950131  0.745781  0.894655  1
  F  F43  1  0.795649  0.049869  0.227988  1
  F  F44  1  0.952542  0.938398  0.081937  1
  F  F45  1  0.703784  0.097264  0.493325  1
  F  F46  1  0.830202  0.829467  0.587676  1
  F  F47  1  0.254219  0.204351  0.561321  1
