# generated using pymatgen
data_Ba2Tl2Co3O10
_symmetry_space_group_name_H-M   'P 1'
_cell_length_a   3.69548249
_cell_length_b   3.69698181
_cell_length_c   19.81796553
_cell_angle_alpha   93.48593775
_cell_angle_beta   94.68712263
_cell_angle_gamma   90.00164699
_symmetry_Int_Tables_number   1
_chemical_formula_structural   Ba2Tl2Co3O10
_chemical_formula_sum   'Ba2 Tl2 Co3 O10'
_cell_volume   269.34749704
_cell_formula_units_Z   1
loop_
 _symmetry_equiv_pos_site_id
 _symmetry_equiv_pos_as_xyz
  1  'x, y, z'
loop_
 _atom_site_type_symbol
 _atom_site_label
 _atom_site_symmetry_multiplicity
 _atom_site_fract_x
 _atom_site_fract_y
 _atom_site_fract_z
 _atom_site_occupancy
  Ba  Ba0  1  0.107062  0.167516  0.282182  1
  Ba  Ba1  1  0.802735  0.824038  0.716847  1
  Tl  Tl2  1  0.678391  0.724839  0.437982  1
  Tl  Tl3  1  0.234174  0.268667  0.561015  1
  Co  Co4  1  0.351612  0.363668  0.832547  1
  Co  Co5  1  0.552377  0.628620  0.168893  1
  Co  Co6  1  0.407048  0.524840  0.000334  1
  O  O7  1  0.344554  0.856664  0.817551  1
  O  O8  1  0.283808  0.306109  0.664803  1
  O  O9  1  0.845325  0.358409  0.818974  1
  O  O10  1  0.760795  0.762222  0.545152  1
  O  O11  1  0.909018  0.528632  0.004363  1
  O  O12  1  0.061277  0.634288  0.186563  1
  O  O13  1  0.634255  0.686307  0.334317  1
  O  O14  1  0.554639  0.130150  0.173901  1
  O  O15  1  0.220167  0.230224  0.453632  1
  O  O16  1  0.403227  0.023512  0.993996  1
