# generated using pymatgen
data_YCu3(NiO3)4
_symmetry_space_group_name_H-M   'P 1'
_cell_length_a   6.29990767
_cell_length_b   6.29927390
_cell_length_c   6.30005851
_cell_angle_alpha   109.49276301
_cell_angle_beta   109.44614570
_cell_angle_gamma   109.48979531
_symmetry_Int_Tables_number   1
_chemical_formula_structural   YCu3(NiO3)4
_chemical_formula_sum   'Y1 Cu3 Ni4 O12'
_cell_volume   192.42728504
_cell_formula_units_Z   1
loop_
 _symmetry_equiv_pos_site_id
 _symmetry_equiv_pos_as_xyz
  1  'x, y, z'
loop_
 _atom_site_type_symbol
 _atom_site_label
 _atom_site_symmetry_multiplicity
 _atom_site_fract_x
 _atom_site_fract_y
 _atom_site_fract_z
 _atom_site_occupancy
  Y  Y0  1  0.000059  0.000008  0.000072  1
  Cu  Cu1  1  0.499998  0.999997  0.500001  1
  Cu  Cu2  1  0.499994  0.499996  0.999989  1
  Cu  Cu3  1  0.999998  0.500006  0.499996  1
  Ni  Ni4  1  0.499995  0.000010  0.999995  1
  Ni  Ni5  1  0.999993  0.999996  0.499998  1
  Ni  Ni6  1  0.999994  0.499991  0.999994  1
  Ni  Ni7  1  0.499994  0.499996  0.499982  1
  O  O8  1  0.831578  0.306131  0.137616  1
  O  O9  1  0.168412  0.693862  0.862364  1
  O  O10  1  0.831453  0.693824  0.525531  1
  O  O11  1  0.306288  0.474554  0.168388  1
  O  O12  1  0.474512  0.168474  0.306412  1
  O  O13  1  0.137843  0.831573  0.306071  1
  O  O14  1  0.693889  0.862188  0.168365  1
  O  O15  1  0.525489  0.831519  0.693592  1
  O  O16  1  0.168536  0.306196  0.474476  1
  O  O17  1  0.693713  0.525450  0.831603  1
  O  O18  1  0.862155  0.168417  0.693935  1
  O  O19  1  0.306109  0.137808  0.831621  1
