# generated using pymatgen
data_AlAg(WO4)2
_symmetry_space_group_name_H-M   'P 1'
_cell_length_a   5.14836110
_cell_length_b   5.86724569
_cell_length_c   9.32786040
_cell_angle_alpha   89.99998685
_cell_angle_beta   92.63396364
_cell_angle_gamma   90.00000036
_symmetry_Int_Tables_number   1
_chemical_formula_structural   AlAg(WO4)2
_chemical_formula_sum   'Al2 Ag2 W4 O16'
_cell_volume   281.46619356
_cell_formula_units_Z   2
loop_
 _symmetry_equiv_pos_site_id
 _symmetry_equiv_pos_as_xyz
  1  'x, y, z'
loop_
 _atom_site_type_symbol
 _atom_site_label
 _atom_site_symmetry_multiplicity
 _atom_site_fract_x
 _atom_site_fract_y
 _atom_site_fract_z
 _atom_site_occupancy
  Al  Al0  1  0.249999  0.661649  0.250000  1
  Al  Al1  1  0.750000  0.338350  0.750000  1
  Ag  Ag2  1  0.750000  0.346669  0.250000  1
  Ag  Ag3  1  0.250000  0.653330  0.750000  1
  W  W4  1  0.257703  0.167450  0.499379  1
  W  W5  1  0.242297  0.167450  0.000621  1
  W  W6  1  0.742297  0.832550  0.500621  1
  W  W7  1  0.757703  0.832550  0.999379  1
  O  O8  1  0.344381  0.406709  0.118869  1
  O  O9  1  0.155619  0.406709  0.381131  1
  O  O10  1  0.655619  0.593290  0.881131  1
  O  O11  1  0.844380  0.593290  0.618869  1
  O  O12  1  0.450919  0.899152  0.610363  1
  O  O13  1  0.049081  0.899152  0.889636  1
  O  O14  1  0.549081  0.100848  0.389637  1
  O  O15  1  0.950919  0.100848  0.110364  1
  O  O16  1  0.939433  0.667677  0.142019  1
  O  O17  1  0.560567  0.667677  0.357981  1
  O  O18  1  0.060567  0.332324  0.857981  1
  O  O19  1  0.439433  0.332324  0.642019  1
  O  O20  1  0.425887  0.885065  0.105592  1
  O  O21  1  0.574113  0.114936  0.894408  1
  O  O22  1  0.074113  0.885065  0.394408  1
  O  O23  1  0.925887  0.114936  0.605592  1
