# generated using pymatgen
data_Mg3Cu2(SiO4)3
_symmetry_space_group_name_H-M   'P 1'
_cell_length_a   10.14689151
_cell_length_b   10.14689177
_cell_length_c   10.14689146
_cell_angle_alpha   109.47122178
_cell_angle_beta   109.47122231
_cell_angle_gamma   109.47121849
_symmetry_Int_Tables_number   1
_chemical_formula_structural   Mg3Cu2(SiO4)3
_chemical_formula_sum   'Mg12 Cu8 Si12 O48'
_cell_volume   804.22425235
_cell_formula_units_Z   4
loop_
 _symmetry_equiv_pos_site_id
 _symmetry_equiv_pos_as_xyz
  1  'x, y, z'
loop_
 _atom_site_type_symbol
 _atom_site_label
 _atom_site_symmetry_multiplicity
 _atom_site_fract_x
 _atom_site_fract_y
 _atom_site_fract_z
 _atom_site_occupancy
  Mg  Mg0  1  0.375000  0.750000  0.125000  1
  Mg  Mg1  1  0.125000  0.250000  0.375000  1
  Mg  Mg2  1  0.375000  0.125000  0.250000  1
  Mg  Mg3  1  0.125000  0.375000  0.750000  1
  Mg  Mg4  1  0.875000  0.750000  0.625000  1
  Mg  Mg5  1  0.750000  0.125000  0.375000  1
  Mg  Mg6  1  0.750000  0.625000  0.875000  1
  Mg  Mg7  1  0.625000  0.250000  0.875000  1
  Mg  Mg8  1  0.250000  0.875000  0.625000  1
  Mg  Mg9  1  0.875000  0.625000  0.250000  1
  Mg  Mg10  1  0.625000  0.875000  0.750000  1
  Mg  Mg11  1  0.250000  0.375000  0.125000  1
  Cu  Cu12  1  0.000000  0.000000  0.000000  1
  Cu  Cu13  1  0.000000  0.500000  0.000000  1
  Cu  Cu14  1  0.000000  0.000000  0.500000  1
  Cu  Cu15  1  0.000000  0.500000  0.500000  1
  Cu  Cu16  1  0.500000  0.000000  0.500000  1
  Cu  Cu17  1  0.500000  0.500000  0.000000  1
  Cu  Cu18  1  0.500000  0.500000  0.500000  1
  Cu  Cu19  1  0.500000  0.000000  0.000000  1
  Si  Si20  1  0.250000  0.125000  0.875000  1
  Si  Si21  1  0.750000  0.875000  0.125000  1
  Si  Si22  1  0.375000  0.250000  0.625000  1
  Si  Si23  1  0.625000  0.375000  0.250000  1
  Si  Si24  1  0.125000  0.750000  0.875000  1
  Si  Si25  1  0.875000  0.125000  0.750000  1
  Si  Si26  1  0.750000  0.375000  0.625000  1
  Si  Si27  1  0.375000  0.625000  0.750000  1
  Si  Si28  1  0.125000  0.875000  0.250000  1
  Si  Si29  1  0.875000  0.250000  0.125000  1
  Si  Si30  1  0.625000  0.750000  0.375000  1
  Si  Si31  1  0.250000  0.625000  0.375000  1
  O  O32  1  0.288248  0.478744  0.374778  1
  O  O33  1  0.021256  0.309504  0.896034  1
  O  O34  1  0.125222  0.603966  0.913469  1
  O  O35  1  0.211752  0.586531  0.190496  1
  O  O36  1  0.211752  0.125222  0.021256  1
  O  O37  1  0.586531  0.190496  0.211752  1
  O  O38  1  0.603966  0.190496  0.478744  1
  O  O39  1  0.190496  0.211752  0.586531  1
  O  O40  1  0.896034  0.374778  0.586531  1
  O  O41  1  0.309504  0.913469  0.288248  1
  O  O42  1  0.913469  0.288248  0.309504  1
  O  O43  1  0.021256  0.211752  0.125222  1
  O  O44  1  0.190496  0.478744  0.603966  1
  O  O45  1  0.586531  0.896034  0.374778  1
  O  O46  1  0.125222  0.021256  0.211752  1
  O  O47  1  0.478744  0.603966  0.190496  1
  O  O48  1  0.374778  0.586531  0.896034  1
  O  O49  1  0.896034  0.021256  0.309504  1
  O  O50  1  0.603966  0.913469  0.125222  1
  O  O51  1  0.103966  0.625222  0.413469  1
  O  O52  1  0.913469  0.125222  0.603966  1
  O  O53  1  0.374778  0.288248  0.478744  1
  O  O54  1  0.309504  0.896034  0.021256  1
  O  O55  1  0.288248  0.309504  0.913469  1
  O  O56  1  0.711752  0.521256  0.625222  1
  O  O57  1  0.978744  0.690496  0.103966  1
  O  O58  1  0.874778  0.396034  0.086531  1
  O  O59  1  0.788248  0.413469  0.809504  1
  O  O60  1  0.788248  0.874778  0.978744  1
  O  O61  1  0.413469  0.809504  0.788248  1
  O  O62  1  0.396034  0.809504  0.521256  1
  O  O63  1  0.809504  0.788248  0.413469  1
  O  O64  1  0.711752  0.690496  0.086531  1
  O  O65  1  0.690496  0.103966  0.978744  1
  O  O66  1  0.625222  0.711752  0.521256  1
  O  O67  1  0.521256  0.625222  0.711752  1
  O  O68  1  0.086531  0.874778  0.396034  1
  O  O69  1  0.396034  0.086531  0.874778  1
  O  O70  1  0.103966  0.978744  0.690496  1
  O  O71  1  0.625222  0.413469  0.103966  1
  O  O72  1  0.521256  0.396034  0.809504  1
  O  O73  1  0.874778  0.978744  0.788248  1
  O  O74  1  0.413469  0.103966  0.625222  1
  O  O75  1  0.809504  0.521256  0.396034  1
  O  O76  1  0.978744  0.788248  0.874778  1
  O  O77  1  0.086531  0.711752  0.690496  1
  O  O78  1  0.690496  0.086531  0.711752  1
  O  O79  1  0.478744  0.374778  0.288248  1
