# generated using pymatgen
data_Mn3ZnO7
_symmetry_space_group_name_H-M   'P 1'
_cell_length_a   5.55235856
_cell_length_b   10.44742143
_cell_length_c   9.34438749
_cell_angle_alpha   90.00000000
_cell_angle_beta   90.00000000
_cell_angle_gamma   90.00000000
_symmetry_Int_Tables_number   1
_chemical_formula_structural   Mn3ZnO7
_chemical_formula_sum   'Mn12 Zn4 O28'
_cell_volume   542.04763917
_cell_formula_units_Z   4
loop_
 _symmetry_equiv_pos_site_id
 _symmetry_equiv_pos_as_xyz
  1  'x, y, z'
loop_
 _atom_site_type_symbol
 _atom_site_label
 _atom_site_symmetry_multiplicity
 _atom_site_fract_x
 _atom_site_fract_y
 _atom_site_fract_z
 _atom_site_occupancy
  Mn  Mn0  1  0.272668  0.022781  0.293657  1
  Mn  Mn1  1  0.772668  0.977219  0.206343  1
  Mn  Mn2  1  0.727332  0.522781  0.706343  1
  Mn  Mn3  1  0.227332  0.477219  0.793657  1
  Mn  Mn4  1  0.272516  0.750000  0.239847  1
  Mn  Mn5  1  0.772516  0.250000  0.260153  1
  Mn  Mn6  1  0.727484  0.250000  0.760153  1
  Mn  Mn7  1  0.227484  0.750000  0.739847  1
  Mn  Mn8  1  0.772668  0.522781  0.206343  1
  Mn  Mn9  1  0.272668  0.477219  0.293657  1
  Mn  Mn10  1  0.227332  0.022781  0.793657  1
  Mn  Mn11  1  0.727332  0.977219  0.706343  1
  Zn  Zn12  1  0.617533  0.750000  0.990311  1
  Zn  Zn13  1  0.117533  0.250000  0.509689  1
  Zn  Zn14  1  0.382467  0.250000  0.009689  1
  Zn  Zn15  1  0.882467  0.750000  0.490311  1
  O  O16  1  0.959806  0.118969  0.710473  1
  O  O17  1  0.459806  0.881031  0.789527  1
  O  O18  1  0.040194  0.618969  0.289527  1
  O  O19  1  0.540194  0.381031  0.210473  1
  O  O20  1  0.040194  0.881031  0.289527  1
  O  O21  1  0.540194  0.118969  0.210473  1
  O  O22  1  0.959806  0.381031  0.710473  1
  O  O23  1  0.459806  0.618969  0.789527  1
  O  O24  1  0.498988  0.115743  0.722912  1
  O  O25  1  0.998988  0.884257  0.777088  1
  O  O26  1  0.501012  0.615743  0.277088  1
  O  O27  1  0.001012  0.384257  0.222912  1
  O  O28  1  0.501012  0.884257  0.277088  1
  O  O29  1  0.001012  0.115743  0.222912  1
  O  O30  1  0.498988  0.384257  0.722912  1
  O  O31  1  0.998988  0.615743  0.777088  1
  O  O32  1  0.219117  0.750000  0.552836  1
  O  O33  1  0.719117  0.250000  0.947164  1
  O  O34  1  0.780883  0.250000  0.447165  1
  O  O35  1  0.280883  0.750000  0.052836  1
  O  O36  1  0.227604  0.412098  0.966582  1
  O  O37  1  0.727604  0.587902  0.533418  1
  O  O38  1  0.772396  0.912098  0.033418  1
  O  O39  1  0.272396  0.087902  0.466582  1
  O  O40  1  0.772396  0.587902  0.033418  1
  O  O41  1  0.272396  0.412098  0.466582  1
  O  O42  1  0.227604  0.087902  0.966582  1
  O  O43  1  0.727604  0.912098  0.533418  1
