# generated using pymatgen
data_CaSbAs2SeO7
_symmetry_space_group_name_H-M   'P 1'
_cell_length_a   11.03674246
_cell_length_b   13.27178509
_cell_length_c   13.26782492
_cell_angle_alpha   80.03982496
_cell_angle_beta   65.43266030
_cell_angle_gamma   65.43609480
_symmetry_Int_Tables_number   1
_chemical_formula_structural   CaSbAs2SeO7
_chemical_formula_sum   'Ca8 Sb8 As16 Se8 O56'
_cell_volume   1607.53981833
_cell_formula_units_Z   8
loop_
 _symmetry_equiv_pos_site_id
 _symmetry_equiv_pos_as_xyz
  1  'x, y, z'
loop_
 _atom_site_type_symbol
 _atom_site_label
 _atom_site_symmetry_multiplicity
 _atom_site_fract_x
 _atom_site_fract_y
 _atom_site_fract_z
 _atom_site_occupancy
  Ca  Ca0  1  0.179029  0.413315  0.289572  1
  Ca  Ca1  1  0.092313  0.289599  0.086676  1
  Ca  Ca2  1  0.531350  0.789573  0.586674  1
  Ca  Ca3  1  0.907687  0.710401  0.913324  1
  Ca  Ca4  1  0.820971  0.586685  0.710428  1
  Ca  Ca5  1  0.117973  0.913338  0.789597  1
  Ca  Ca6  1  0.468650  0.210427  0.413326  1
  Ca  Ca7  1  0.882027  0.086662  0.210403  1
  Sb  Sb8  1  0.298267  0.612414  0.734279  1
  Sb  Sb9  1  0.644986  0.887570  0.765664  1
  Sb  Sb10  1  0.701733  0.387586  0.265721  1
  Sb  Sb11  1  0.967484  0.234375  0.387596  1
  Sb  Sb12  1  0.355014  0.112430  0.234336  1
  Sb  Sb13  1  0.032516  0.765625  0.612404  1
  Sb  Sb14  1  0.589443  0.265639  0.112341  1
  Sb  Sb15  1  0.410557  0.734361  0.887659  1
  As  As16  1  0.628410  0.431374  0.837407  1
  As  As17  1  0.898477  0.582560  0.216262  1
  As  As18  1  0.302739  0.082544  0.716248  1
  As  As19  1  0.466076  0.662219  0.431184  1
  As  As20  1  0.114814  0.283699  0.582469  1
  As  As21  1  0.897287  0.068618  0.662427  1
  As  As22  1  0.440358  0.162328  0.931186  1
  As  As23  1  0.885186  0.716301  0.417531  1
  As  As24  1  0.559642  0.837672  0.068814  1
  As  As25  1  0.102713  0.931382  0.337573  1
  As  As26  1  0.101523  0.417440  0.783738  1
  As  As27  1  0.981021  0.216220  0.917471  1
  As  As28  1  0.371590  0.568626  0.162593  1
  As  As29  1  0.697261  0.917456  0.283752  1
  As  As30  1  0.018979  0.783780  0.082529  1
  As  As31  1  0.533924  0.337780  0.568816  1
  Se  Se32  1  0.754875  0.485998  0.487112  1
  Se  Se33  1  0.728122  0.014051  0.012784  1
  Se  Se34  1  0.757839  0.987172  0.514017  1
  Se  Se35  1  0.740977  0.487127  0.014082  1
  Se  Se36  1  0.242161  0.012828  0.485983  1
  Se  Se37  1  0.245125  0.514002  0.512888  1
  Se  Se38  1  0.259023  0.512873  0.985918  1
  Se  Se39  1  0.271878  0.985949  0.987216  1
  O  O40  1  0.974428  0.848902  0.968916  1
  O  O41  1  0.107351  0.112586  0.803670  1
  O  O42  1  0.650901  0.900563  0.607308  1
  O  O43  1  0.119768  0.982971  0.206409  1
  O  O44  1  0.051492  0.607332  0.599370  1
  O  O45  1  0.741764  0.107352  0.099428  1
  O  O46  1  0.421502  0.514340  0.865192  1
  O  O47  1  0.690922  0.483015  0.706303  1
  O  O48  1  0.107088  0.741072  0.733271  1
  O  O49  1  0.325901  0.293802  0.983026  1
  O  O50  1  0.651856  0.266703  0.241047  1
  O  O51  1  0.397250  0.793793  0.482917  1
  O  O52  1  0.892649  0.887414  0.196330  1
  O  O53  1  0.258236  0.892648  0.900572  1
  O  O54  1  0.943280  0.531088  0.848925  1
  O  O55  1  0.079033  0.964675  0.596584  1
  O  O56  1  0.976355  0.612677  0.303695  1
  O  O57  1  0.198808  0.014391  0.365333  1
  O  O58  1  0.056720  0.468912  0.151075  1
  O  O59  1  0.025572  0.151098  0.031084  1
  O  O60  1  0.564175  0.134763  0.014319  1
  O  O61  1  0.023645  0.387323  0.696305  1
  O  O62  1  0.880232  0.017029  0.793591  1
  O  O63  1  0.207838  0.348881  0.468876  1
  O  O64  1  0.359692  0.464815  0.096550  1
  O  O65  1  0.348144  0.733297  0.758953  1
  O  O66  1  0.581407  0.758930  0.766772  1
  O  O67  1  0.543662  0.596571  0.535313  1
  O  O68  1  0.159580  0.233324  0.258932  1
  O  O69  1  0.911076  0.696327  0.112586  1
  O  O70  1  0.892912  0.258928  0.266729  1
  O  O71  1  0.435825  0.865237  0.985681  1
  O  O72  1  0.456338  0.403429  0.464687  1
  O  O73  1  0.719943  0.803672  0.387389  1
  O  O74  1  0.602750  0.206207  0.517083  1
  O  O75  1  0.713168  0.365287  0.485722  1
  O  O76  1  0.349099  0.099437  0.392692  1
  O  O77  1  0.324460  0.096550  0.035241  1
  O  O78  1  0.675540  0.903450  0.964759  1
  O  O79  1  0.841147  0.400596  0.107347  1
  O  O80  1  0.578498  0.485660  0.134808  1
  O  O81  1  0.158853  0.599404  0.892653  1
  O  O82  1  0.840420  0.766676  0.741068  1
  O  O83  1  0.286832  0.634713  0.514278  1
  O  O84  1  0.920967  0.035325  0.403416  1
  O  O85  1  0.792162  0.651119  0.531124  1
  O  O86  1  0.640308  0.535185  0.903450  1
  O  O87  1  0.280057  0.196328  0.612611  1
  O  O88  1  0.309078  0.516985  0.293697  1
  O  O89  1  0.801192  0.985609  0.634667  1
  O  O90  1  0.323354  0.968872  0.651033  1
  O  O91  1  0.676646  0.031128  0.348967  1
  O  O92  1  0.948508  0.392668  0.400630  1
  O  O93  1  0.088924  0.303673  0.887414  1
  O  O94  1  0.418593  0.241070  0.233228  1
  O  O95  1  0.674099  0.706198  0.016974  1
