# generated using pymatgen
data_Ba2CaCuSn2F14
_symmetry_space_group_name_H-M   'P 1'
_cell_length_a   5.60536746
_cell_length_b   7.78357983
_cell_length_c   15.67183278
_cell_angle_alpha   91.59376220
_cell_angle_beta   90.21568868
_cell_angle_gamma   110.90814769
_symmetry_Int_Tables_number   1
_chemical_formula_structural   Ba2CaCuSn2F14
_chemical_formula_sum   'Ba4 Ca2 Cu2 Sn4 F28'
_cell_volume   638.42060842
_cell_formula_units_Z   2
loop_
 _symmetry_equiv_pos_site_id
 _symmetry_equiv_pos_as_xyz
  1  'x, y, z'
loop_
 _atom_site_type_symbol
 _atom_site_label
 _atom_site_symmetry_multiplicity
 _atom_site_fract_x
 _atom_site_fract_y
 _atom_site_fract_z
 _atom_site_occupancy
  Ba  Ba0  1  0.090327  0.353857  0.622059  1
  Ba  Ba1  1  0.265285  0.355923  0.126908  1
  Ba  Ba2  1  0.901483  0.632132  0.375664  1
  Ba  Ba3  1  0.729721  0.633055  0.874802  1
  Ca  Ca4  1  0.439162  0.005885  0.752363  1
  Ca  Ca5  1  0.571069  0.014753  0.253810  1
  Cu  Cu6  1  0.507966  0.007098  -0.000420  1
  Cu  Cu7  1  0.500987  0.007243  0.498834  1
  Sn  Sn8  1  0.084823  0.241626  0.878897  1
  Sn  Sn9  1  0.902621  0.754208  0.123989  1
  Sn  Sn10  1  0.159650  0.238726  0.379527  1
  Sn  Sn11  1  0.850592  0.755665  0.623428  1
  F  F12  1  0.867085  0.959729  0.335996  1
  F  F13  1  0.874403  0.313865  0.457603  1
  F  F14  1  0.110235  0.695638  0.549702  1
  F  F15  1  0.632024  0.490700  0.605491  1
  F  F16  1  0.631180  0.072470  0.618179  1
  F  F17  1  0.552611  0.921321  0.882876  1
  F  F18  1  0.434474  0.315256  0.955497  1
  F  F19  1  0.912133  0.006333  0.156000  1
  F  F20  1  0.366100  0.324968  0.775103  1
  F  F21  1  0.379896  0.532098  0.396350  1
  F  F22  1  0.809797  0.244035  0.776947  1
  F  F23  1  0.144505  0.527402  0.896202  1
  F  F24  1  0.437391  0.253056  0.271979  1
  F  F25  1  0.174838  0.766558  0.211038  1
  F  F26  1  0.444917  0.075013  0.116474  1
  F  F27  1  0.642838  0.673673  0.217922  1
  F  F28  1  0.086267  0.822537  0.015099  1
  F  F29  1  0.093160  0.007357  0.657615  1
  F  F30  1  0.904651  0.177168  0.000073  1
  F  F31  1  0.730644  0.823829  0.514334  1
  F  F32  1  0.585379  0.695031  0.048705  1
  F  F33  1  0.592497  0.762135  0.713566  1
  F  F34  1  0.956156  0.324975  0.272033  1
  F  F35  1  0.275646  0.173840  0.507087  1
  F  F36  1  0.365471  0.923121  0.382686  1
  F  F37  1  0.092953  0.968473  0.838918  1
  F  F38  1  0.030999  0.675403  0.719598  1
  F  F39  1  0.863764  0.491549  0.103034  1
