# generated using pymatgen
data_Ba2Ca3Tl2(FeO3)4
_symmetry_space_group_name_H-M   'P 1'
_cell_length_a   3.99312155
_cell_length_b   3.99312148
_cell_length_c   21.47097023
_cell_angle_alpha   95.33557300
_cell_angle_beta   95.33557365
_cell_angle_gamma   89.99999489
_symmetry_Int_Tables_number   1
_chemical_formula_structural   Ba2Ca3Tl2(FeO3)4
_chemical_formula_sum   'Ba2 Ca3 Tl2 Fe4 O12'
_cell_volume   339.38181251
_cell_formula_units_Z   1
loop_
 _symmetry_equiv_pos_site_id
 _symmetry_equiv_pos_as_xyz
  1  'x, y, z'
loop_
 _atom_site_type_symbol
 _atom_site_label
 _atom_site_symmetry_multiplicity
 _atom_site_fract_x
 _atom_site_fract_y
 _atom_site_fract_z
 _atom_site_occupancy
  Ba  Ba0  1  0.159802  0.159802  0.319603  1
  Ba  Ba1  1  0.840198  0.840198  0.680397  1
  Ca  Ca2  1  0.075040  0.075040  0.150080  1
  Ca  Ca3  1  0.924960  0.924960  0.849920  1
  Ca  Ca4  1  0.000000  0.000000  0.000000  1
  Tl  Tl5  1  0.723377  0.723377  0.446752  1
  Tl  Tl6  1  0.276623  0.276623  0.553248  1
  Fe  Fe7  1  0.539852  0.539852  0.079705  1
  Fe  Fe8  1  0.389244  0.389244  0.778488  1
  Fe  Fe9  1  0.610756  0.610756  0.221512  1
  Fe  Fe10  1  0.460148  0.460148  0.920295  1
  O  O11  1  0.390036  0.890036  0.780072  1
  O  O12  1  0.536372  0.036372  0.072746  1
  O  O13  1  0.226256  0.226256  0.452513  1
  O  O14  1  0.963628  0.463628  0.927254  1
  O  O15  1  0.773744  0.773744  0.547487  1
  O  O16  1  0.109964  0.609964  0.219928  1
  O  O17  1  0.609964  0.109964  0.219928  1
  O  O18  1  0.326386  0.326386  0.652773  1
  O  O19  1  0.890036  0.390036  0.780072  1
  O  O20  1  0.036372  0.536372  0.072746  1
  O  O21  1  0.463628  0.963628  0.927254  1
  O  O22  1  0.673614  0.673614  0.347227  1
