# generated using pymatgen
data_Mg(SbO2)2
_symmetry_space_group_name_H-M   'P 1'
_cell_length_a   6.04922029
_cell_length_b   6.06045668
_cell_length_c   22.34817723
_cell_angle_alpha   68.69295624
_cell_angle_beta   72.50494639
_cell_angle_gamma   69.04030619
_symmetry_Int_Tables_number   1
_chemical_formula_structural   Mg(SbO2)2
_chemical_formula_sum   'Mg6 Sb12 O24'
_cell_volume   698.95306388
_cell_formula_units_Z   6
loop_
 _symmetry_equiv_pos_site_id
 _symmetry_equiv_pos_as_xyz
  1  'x, y, z'
loop_
 _atom_site_type_symbol
 _atom_site_label
 _atom_site_symmetry_multiplicity
 _atom_site_fract_x
 _atom_site_fract_y
 _atom_site_fract_z
 _atom_site_occupancy
  Mg  Mg0  1  0.063667  0.088149  0.058962  1
  Mg  Mg1  1  0.063327  0.042509  0.409104  1
  Mg  Mg2  1  0.512006  0.549048  0.981702  1
  Mg  Mg3  1  0.069291  0.125846  0.687931  1
  Mg  Mg4  1  0.929925  0.899080  0.284538  1
  Mg  Mg5  1  0.942473  0.797628  0.643853  1
  Sb  Sb6  1  0.032391  0.443630  0.170900  1
  Sb  Sb7  1  0.604888  0.610213  0.096076  1
  Sb  Sb8  1  0.012886  0.366560  0.540646  1
  Sb  Sb9  1  0.486409  0.968689  0.184028  1
  Sb  Sb10  1  0.562651  0.489644  0.314848  1
  Sb  Sb11  1  0.668371  0.643682  0.431010  1
  Sb  Sb12  1  0.951955  0.423221  0.791627  1
  Sb  Sb13  1  0.502579  0.948541  0.539078  1
  Sb  Sb14  1  0.573592  0.977680  0.824714  1
  Sb  Sb15  1  0.446395  0.530908  0.676848  1
  Sb  Sb16  1  0.268908  0.417585  0.900704  1
  Sb  Sb17  1  0.913906  0.966518  0.938258  1
  O  O18  1  0.144169  0.154709  0.133408  1
  O  O19  1  0.335306  0.285870  0.208352  1
  O  O20  1  0.306870  0.732822  0.062079  1
  O  O21  1  0.735007  0.360069  0.048570  1
  O  O22  1  0.285014  0.765028  0.253144  1
  O  O23  1  0.147627  0.122771  0.488997  1
  O  O24  1  0.823975  0.274985  0.254191  1
  O  O25  1  0.751272  0.884190  0.030708  1
  O  O26  1  0.386686  0.801159  0.389489  1
  O  O27  1  0.310908  0.214738  0.582641  1
  O  O28  1  0.715352  0.768331  0.259475  1
  O  O29  1  0.826561  0.392973  0.379797  1
  O  O30  1  0.303697  0.712381  0.593408  1
  O  O31  1  0.082263  0.433694  0.696404  1
  O  O32  1  0.863641  0.164964  0.625085  1
  O  O33  1  0.876587  0.867483  0.381459  1
  O  O34  1  0.134985  0.143045  0.961130  1
  O  O35  1  0.191560  0.769236  0.720009  1
  O  O36  1  0.676014  0.757218  0.618393  1
  O  O37  1  0.823651  0.162957  0.780013  1
  O  O38  1  0.178430  0.607625  0.964404  1
  O  O39  1  0.696612  0.743831  0.768345  1
  O  O40  1  0.597066  0.316325  0.920769  1
  O  O41  1  0.701124  0.774465  0.904902  1
