# generated using pymatgen
data_Zn2CuN2
_symmetry_space_group_name_H-M   'P 1'
_cell_length_a   3.58476185
_cell_length_b   5.91544862
_cell_length_c   6.84550680
_cell_angle_alpha   69.74169454
_cell_angle_beta   74.82113671
_cell_angle_gamma   72.36212305
_symmetry_Int_Tables_number   1
_chemical_formula_structural   Zn2CuN2
_chemical_formula_sum   'Zn4 Cu2 N4'
_cell_volume   127.76613609
_cell_formula_units_Z   2
loop_
 _symmetry_equiv_pos_site_id
 _symmetry_equiv_pos_as_xyz
  1  'x, y, z'
loop_
 _atom_site_type_symbol
 _atom_site_label
 _atom_site_symmetry_multiplicity
 _atom_site_fract_x
 _atom_site_fract_y
 _atom_site_fract_z
 _atom_site_occupancy
  Zn  Zn0  1  0.657306  0.195902  0.489487  1
  Zn  Zn1  1  0.342694  0.804098  0.510513  1
  Zn  Zn2  1  0.081820  0.613424  0.222936  1
  Zn  Zn3  1  0.918180  0.386576  0.777064  1
  Cu  Cu4  1  0.372165  0.160030  0.095641  1
  Cu  Cu5  1  0.627835  0.839970  0.904359  1
  N  N6  1  0.200328  0.244487  0.354857  1
  N  N7  1  0.799672  0.755513  0.645143  1
  N  N8  1  0.489464  0.223011  0.798060  1
  N  N9  1  0.510536  0.776989  0.201940  1
