# generated using pymatgen
data_Mg(AgO2)2
_symmetry_space_group_name_H-M   'P 1'
_cell_length_a   5.57779414
_cell_length_b   6.34398303
_cell_length_c   10.99830300
_cell_angle_alpha   90.64283957
_cell_angle_beta   89.97792404
_cell_angle_gamma   90.00189725
_symmetry_Int_Tables_number   1
_chemical_formula_structural   Mg(AgO2)2
_chemical_formula_sum   'Mg4 Ag8 O16'
_cell_volume   389.15517224
_cell_formula_units_Z   4
loop_
 _symmetry_equiv_pos_site_id
 _symmetry_equiv_pos_as_xyz
  1  'x, y, z'
loop_
 _atom_site_type_symbol
 _atom_site_label
 _atom_site_symmetry_multiplicity
 _atom_site_fract_x
 _atom_site_fract_y
 _atom_site_fract_z
 _atom_site_occupancy
  Mg  Mg0  1  0.865065  0.249134  0.749947  1
  Mg  Mg1  1  0.135236  0.750128  0.250139  1
  Mg  Mg2  1  0.579735  0.250716  0.250278  1
  Mg  Mg3  1  0.419159  0.749649  0.749675  1
  Ag  Ag4  1  0.534958  0.749431  0.464787  1
  Ag  Ag5  1  0.535615  0.751118  0.035409  1
  Ag  Ag6  1  0.464517  0.250366  0.534926  1
  Ag  Ag7  1  0.464898  0.249248  0.964839  1
  Ag  Ag8  1  0.999910  0.499874  0.499969  1
  Ag  Ag9  1  0.000457  0.000195  0.000108  1
  Ag  Ag10  1  0.999948  0.000101  0.499906  1
  Ag  Ag11  1  0.000394  0.499889  0.000113  1
  O  O12  1  0.895273  0.743514  0.386164  1
  O  O13  1  0.895733  0.757570  0.114137  1
  O  O14  1  0.104963  0.256383  0.613833  1
  O  O15  1  0.105383  0.242534  0.885847  1
  O  O16  1  0.223090  0.744035  0.586033  1
  O  O17  1  0.222348  0.756167  0.914491  1
  O  O18  1  0.776111  0.255975  0.413946  1
  O  O19  1  0.777799  0.244083  0.085635  1
  O  O20  1  0.649173  0.501908  0.683797  1
  O  O21  1  0.649309  0.997087  0.816261  1
  O  O22  1  0.350511  0.002439  0.318571  1
  O  O23  1  0.351048  0.498384  0.181283  1
  O  O24  1  0.350466  0.497995  0.316151  1
  O  O25  1  0.350390  0.002988  0.183824  1
  O  O26  1  0.648728  0.997387  0.681463  1
  O  O27  1  0.649783  0.501699  0.818470  1
