# generated using pymatgen
data_Y4Si2Sb2W13O28
_symmetry_space_group_name_H-M   'P 1'
_cell_length_a   6.23699081
_cell_length_b   9.62563774
_cell_length_c   12.97580033
_cell_angle_alpha   85.53187824
_cell_angle_beta   76.09388756
_cell_angle_gamma   71.08567894
_symmetry_Int_Tables_number   1
_chemical_formula_structural   Y4Si2Sb2W13O28
_chemical_formula_sum   'Y4 Si2 Sb2 W13 O28'
_cell_volume   715.34055518
_cell_formula_units_Z   1
loop_
 _symmetry_equiv_pos_site_id
 _symmetry_equiv_pos_as_xyz
  1  'x, y, z'
loop_
 _atom_site_type_symbol
 _atom_site_label
 _atom_site_symmetry_multiplicity
 _atom_site_fract_x
 _atom_site_fract_y
 _atom_site_fract_z
 _atom_site_occupancy
  Y  Y0  1  0.045234  0.661641  0.423500  1
  Y  Y1  1  0.531265  0.338359  0.423500  1
  Y  Y2  1  0.954766  0.338359  0.576500  1
  Y  Y3  1  0.468735  0.661641  0.576500  1
  Si  Si4  1  0.153787  0.291438  0.000000  1
  Si  Si5  1  0.846213  0.708562  1.000000  1
  Sb  Sb6  1  0.881020  1.000000  0.237960  1
  Sb  Sb7  1  0.118980  0.000000  0.762040  1
  W  W8  1  0.866707  0.633360  0.731554  1
  W  W9  1  0.655528  0.311464  0.160920  1
  W  W10  1  0.401738  0.366640  0.731554  1
  W  W11  1  0.133293  0.366640  0.268446  1
  W  W12  1  0.344472  0.688536  0.839080  1
  W  W13  1  0.283257  1.000000  0.433485  1
  W  W14  1  0.183552  0.688536  0.160920  1
  W  W15  1  0.000000  -0.000000  0.000000  1
  W  W16  1  0.422025  0.000000  0.155950  1
  W  W17  1  0.816448  0.311464  0.839080  1
  W  W18  1  0.598262  0.633360  0.268446  1
  W  W19  1  0.577975  1.000000  0.844050  1
  W  W20  1  0.716743  0.000000  0.566515  1
  O  O21  1  0.767972  0.390786  0.276955  1
  O  O22  1  0.154934  0.403436  0.427955  1
  O  O23  1  0.873870  0.314785  0.000000  1
  O  O24  1  0.274385  0.104375  1.000000  1
  O  O25  1  0.845066  0.596564  0.572045  1
  O  O26  1  0.232028  0.609214  0.723045  1
  O  O27  1  0.949562  0.135038  0.504975  1
  O  O28  1  0.050438  0.864962  0.495025  1
  O  O29  1  0.725615  0.895625  0.000000  1
  O  O30  1  0.306866  0.851734  0.101553  1
  O  O31  1  0.157324  0.359684  0.107156  1
  O  O32  1  0.955073  0.609214  0.276955  1
  O  O33  1  0.545464  0.864962  0.504975  1
  O  O34  1  0.591582  0.148266  0.101553  1
  O  O35  1  0.735521  0.640316  0.107156  1
  O  O36  1  0.126130  0.685215  1.000000  1
  O  O37  1  0.408418  0.851734  0.898447  1
  O  O38  1  0.693134  0.148266  0.898447  1
  O  O39  1  0.454536  0.135038  0.495025  1
  O  O40  1  0.249080  0.131486  0.290782  1
  O  O41  1  0.750920  0.868514  0.709218  1
  O  O42  1  0.264479  0.359684  0.892844  1
  O  O43  1  0.539862  0.131486  0.709218  1
  O  O44  1  0.582889  0.403436  0.572045  1
  O  O45  1  0.842676  0.640316  0.892844  1
  O  O46  1  0.460138  0.868514  0.290782  1
  O  O47  1  0.044927  0.390786  0.723045  1
  O  O48  1  0.417111  0.596564  0.427955  1
