# generated using pymatgen
data_MgCo4O9
_symmetry_space_group_name_H-M   'P 1'
_cell_length_a   4.89242461
_cell_length_b   8.15465847
_cell_length_c   8.18186742
_cell_angle_alpha   89.71397305
_cell_angle_beta   90.00486762
_cell_angle_gamma   90.00037859
_symmetry_Int_Tables_number   1
_chemical_formula_structural   MgCo4O9
_chemical_formula_sum   'Mg2 Co8 O18'
_cell_volume   326.42013790
_cell_formula_units_Z   2
loop_
 _symmetry_equiv_pos_site_id
 _symmetry_equiv_pos_as_xyz
  1  'x, y, z'
loop_
 _atom_site_type_symbol
 _atom_site_label
 _atom_site_symmetry_multiplicity
 _atom_site_fract_x
 _atom_site_fract_y
 _atom_site_fract_z
 _atom_site_occupancy
  Mg  Mg0  1  0.147048  0.247707  0.245751  1
  Mg  Mg1  1  0.852992  0.747627  0.745759  1
  Co  Co2  1  0.614348  0.533888  0.338545  1
  Co  Co3  1  0.387944  0.838580  0.467086  1
  Co  Co4  1  0.612022  0.338598  0.967084  1
  Co  Co5  1  0.385613  0.033890  0.838523  1
  Co  Co6  1  0.614078  0.966264  0.162278  1
  Co  Co7  1  0.619158  0.163307  0.534706  1
  Co  Co8  1  0.385923  0.466250  0.662269  1
  Co  Co9  1  0.380780  0.663311  0.034720  1
  O  O10  1  0.490956  0.749955  0.250556  1
  O  O11  1  0.509059  0.249924  0.750474  1
  O  O12  1  0.056450  0.683727  0.977020  1
  O  O13  1  0.061123  0.521258  0.683825  1
  O  O14  1  0.062844  0.976138  0.814582  1
  O  O15  1  0.061905  0.817342  0.521208  1
  O  O16  1  0.938180  0.317354  0.021170  1
  O  O17  1  0.937171  0.476152  0.314597  1
  O  O18  1  0.938921  0.021275  0.183828  1
  O  O19  1  0.943504  0.183714  0.476973  1
  O  O20  1  0.447642  0.045555  0.354523  1
  O  O21  1  0.427135  0.145983  0.044478  1
  O  O22  1  0.432346  0.355104  0.458045  1
  O  O23  1  0.439813  0.455202  0.147504  1
  O  O24  1  0.552407  0.545536  0.854488  1
  O  O25  1  0.567613  0.855146  0.958044  1
  O  O26  1  0.572851  0.645976  0.544485  1
  O  O27  1  0.560181  0.955239  0.647475  1
