# generated using pymatgen
data_Ca5Mn2(NiO6)2
_symmetry_space_group_name_H-M   'P 1'
_cell_length_a   6.38401947
_cell_length_b   6.38039518
_cell_length_c   6.38401966
_cell_angle_alpha   93.01965389
_cell_angle_beta   93.38302055
_cell_angle_gamma   93.01964975
_symmetry_Int_Tables_number   1
_chemical_formula_structural   Ca5Mn2(NiO6)2
_chemical_formula_sum   'Ca5 Mn2 Ni2 O12'
_cell_volume   258.81769856
_cell_formula_units_Z   1
loop_
 _symmetry_equiv_pos_site_id
 _symmetry_equiv_pos_as_xyz
  1  'x, y, z'
loop_
 _atom_site_type_symbol
 _atom_site_label
 _atom_site_symmetry_multiplicity
 _atom_site_fract_x
 _atom_site_fract_y
 _atom_site_fract_z
 _atom_site_occupancy
  Ca  Ca0  1  0.609143  0.884968  0.255563  1
  Ca  Ca1  1  0.763060  0.393347  0.122588  1
  Ca  Ca2  1  0.377413  0.106652  0.736940  1
  Ca  Ca3  1  0.890576  0.250000  0.609423  1
  Ca  Ca4  1  0.244437  0.615033  0.890857  1
  Mn  Mn5  1  0.496567  0.497890  0.499700  1
  Mn  Mn6  1  0.000299  0.002109  0.003432  1
  Ni  Ni7  1  0.748304  0.750000  0.751696  1
  Ni  Ni8  1  0.250631  0.250000  0.249369  1
  O  O9  1  0.219938  0.400129  0.549229  1
  O  O10  1  0.785775  0.579244  0.479260  1
  O  O11  1  0.582398  0.471584  0.796228  1
  O  O12  1  0.485010  0.791048  0.589360  1
  O  O13  1  0.020740  0.920756  0.714225  1
  O  O14  1  0.910640  0.708952  0.014990  1
  O  O15  1  0.291561  0.969411  0.062672  1
  O  O16  1  0.074970  0.290830  0.954977  1
  O  O17  1  0.950772  0.099870  0.280063  1
  O  O18  1  0.545023  0.209171  0.425030  1
  O  O19  1  0.437327  0.530589  0.208439  1
  O  O20  1  0.703772  0.028416  0.917603  1
