# generated using pymatgen
data_LaCrSnO6
_symmetry_space_group_name_H-M   'P 1'
_cell_length_a   5.54500002
_cell_length_b   5.54344092
_cell_length_c   5.53378483
_cell_angle_alpha   59.54197703
_cell_angle_beta   120.04973512
_cell_angle_gamma   90.22158782
_symmetry_Int_Tables_number   1
_chemical_formula_structural   LaCrSnO6
_chemical_formula_sum   'La1 Cr1 Sn1 O6'
_cell_volume   119.58395188
_cell_formula_units_Z   1
loop_
 _symmetry_equiv_pos_site_id
 _symmetry_equiv_pos_as_xyz
  1  'x, y, z'
loop_
 _atom_site_type_symbol
 _atom_site_label
 _atom_site_symmetry_multiplicity
 _atom_site_fract_x
 _atom_site_fract_y
 _atom_site_fract_z
 _atom_site_occupancy
  La  La0  1  0.757557  0.256724  0.495101  1
  Cr  Cr1  1  0.995236  0.509418  0.989212  1
  Sn  Sn2  1  0.499505  0.009467  0.992694  1
  O  O3  1  0.324461  0.267291  0.479627  1
  O  O4  1  0.199647  0.302710  0.927100  1
  O  O5  1  0.790341  0.693227  0.089891  1
  O  O6  1  0.190472  0.796808  0.933991  1
  O  O7  1  0.796369  0.240930  0.069444  1
  O  O8  1  0.706647  0.764837  0.523355  1
