# generated using pymatgen
data_ZnCr3P3O13
_symmetry_space_group_name_H-M   'P 1'
_cell_length_a   6.31695779
_cell_length_b   7.51654305
_cell_length_c   10.16285385
_cell_angle_alpha   100.46541056
_cell_angle_beta   90.00000000
_cell_angle_gamma   90.00000000
_symmetry_Int_Tables_number   1
_chemical_formula_structural   ZnCr3P3O13
_chemical_formula_sum   'Zn2 Cr6 P6 O26'
_cell_volume   474.52209393
_cell_formula_units_Z   2
loop_
 _symmetry_equiv_pos_site_id
 _symmetry_equiv_pos_as_xyz
  1  'x, y, z'
loop_
 _atom_site_type_symbol
 _atom_site_label
 _atom_site_symmetry_multiplicity
 _atom_site_fract_x
 _atom_site_fract_y
 _atom_site_fract_z
 _atom_site_occupancy
  Zn  Zn0  1  0.750000  0.628913  0.179656  1
  Zn  Zn1  1  0.250000  0.371087  0.820344  1
  Cr  Cr2  1  0.250000  0.359469  0.201258  1
  Cr  Cr3  1  0.750000  0.640531  0.798742  1
  Cr  Cr4  1  0.250000  0.773100  0.436506  1
  Cr  Cr5  1  0.500000  -0.000000  0.000000  1
  Cr  Cr6  1  0.750000  0.226900  0.563494  1
  Cr  Cr7  1  0.000000  -0.000000  0.000000  1
  P  P8  1  0.250000  0.212072  0.491168  1
  P  P9  1  0.750000  0.787928  0.508832  1
  P  P10  1  0.250000  0.733474  0.763825  1
  P  P11  1  0.750000  0.266526  0.236175  1
  P  P12  1  0.750000  0.316866  0.889209  1
  P  P13  1  0.250000  0.683134  0.110791  1
  O  O14  1  0.750000  0.363639  0.746478  1
  O  O15  1  0.560216  0.748741  0.410098  1
  O  O16  1  0.250000  0.792126  0.629806  1
  O  O17  1  0.541614  0.213413  0.903535  1
  O  O18  1  0.750000  0.655834  0.608085  1
  O  O19  1  0.750000  0.880027  0.901268  1
  O  O20  1  0.250000  0.344166  0.391915  1
  O  O21  1  0.041614  0.786587  0.096465  1
  O  O22  1  0.250000  0.018298  0.408666  1
  O  O23  1  0.750000  0.981702  0.591334  1
  O  O24  1  0.063214  0.610462  0.789470  1
  O  O25  1  0.250000  0.119973  0.098732  1
  O  O26  1  0.563214  0.389538  0.210530  1
  O  O27  1  0.750000  0.512611  0.973182  1
  O  O28  1  0.750000  0.207874  0.370194  1
  O  O29  1  0.458386  0.786587  0.096465  1
  O  O30  1  0.939784  0.748741  0.410098  1
  O  O31  1  0.439784  0.251259  0.589902  1
  O  O32  1  0.436786  0.610462  0.789470  1
  O  O33  1  0.250000  0.636361  0.253522  1
  O  O34  1  0.750000  0.090917  0.124922  1
  O  O35  1  0.250000  0.909083  0.875078  1
  O  O36  1  0.936786  0.389538  0.210530  1
  O  O37  1  0.958386  0.213413  0.903535  1
  O  O38  1  0.060216  0.251259  0.589902  1
  O  O39  1  0.250000  0.487389  0.026818  1
