# generated using pymatgen
data_Sr3MgFe2S2O5
_symmetry_space_group_name_H-M   'P 1'
_cell_length_a   3.95812589
_cell_length_b   3.95812589
_cell_length_c   14.09979421
_cell_angle_alpha   98.06874337
_cell_angle_beta   98.06874337
_cell_angle_gamma   90.00000000
_symmetry_Int_Tables_number   1
_chemical_formula_structural   Sr3MgFe2S2O5
_chemical_formula_sum   'Sr3 Mg1 Fe2 S2 O5'
_cell_volume   216.50239678
_cell_formula_units_Z   1
loop_
 _symmetry_equiv_pos_site_id
 _symmetry_equiv_pos_as_xyz
  1  'x, y, z'
loop_
 _atom_site_type_symbol
 _atom_site_label
 _atom_site_symmetry_multiplicity
 _atom_site_fract_x
 _atom_site_fract_y
 _atom_site_fract_z
 _atom_site_occupancy
  Sr  Sr0  1  0.500000  0.500000  -0.000000  1
  Sr  Sr1  1  0.637596  0.637596  0.275192  1
  Sr  Sr2  1  0.362404  0.362404  0.724808  1
  Mg  Mg3  1  0.750000  0.250000  0.500000  1
  Fe  Fe4  1  0.069682  0.069682  0.139365  1
  Fe  Fe5  1  0.930318  0.930318  0.860635  1
  S  S6  1  0.193676  0.193676  0.387353  1
  S  S7  1  0.806324  0.806324  0.612647  1
  O  O8  1  0.079131  0.579131  0.158261  1
  O  O9  1  0.580178  0.080178  0.160358  1
  O  O10  1  0.919822  0.419822  0.839642  1
  O  O11  1  0.420869  0.920869  0.841739  1
  O  O12  1  0.000000  0.000000  -0.000000  1
