# generated using pymatgen
data_AlV3O6
_symmetry_space_group_name_H-M   'P 1'
_cell_length_a   17.95098775
_cell_length_b   5.95766086
_cell_length_c   5.95529975
_cell_angle_alpha   60.07511484
_cell_angle_beta   60.01603815
_cell_angle_gamma   60.02991693
_symmetry_Int_Tables_number   1
_chemical_formula_structural   AlV3O6
_chemical_formula_sum   'Al4 V12 O24'
_cell_volume   450.76438435
_cell_formula_units_Z   4
loop_
 _symmetry_equiv_pos_site_id
 _symmetry_equiv_pos_as_xyz
  1  'x, y, z'
loop_
 _atom_site_type_symbol
 _atom_site_label
 _atom_site_symmetry_multiplicity
 _atom_site_fract_x
 _atom_site_fract_y
 _atom_site_fract_z
 _atom_site_occupancy
  Al  Al0  1  0.204754  0.629531  0.629361  1
  Al  Al1  1  0.877725  0.622143  0.622141  1
  Al  Al2  1  0.461912  0.370469  0.370639  1
  Al  Al3  1  0.788942  0.377857  0.377859  1
  V  V4  1  0.001102  0.493121  0.001931  1
  V  V5  1  0.333333  0.500000  0.000000  1
  V  V6  1  0.665565  0.506879  0.998069  1
  V  V7  1  0.001237  0.002797  0.002733  1
  V  V8  1  0.333333  0.000000  0.000000  1
  V  V9  1  0.665430  0.997203  0.997267  1
  V  V10  1  0.160138  0.010562  0.009855  1
  V  V11  1  0.506529  0.989438  0.990145  1
  V  V12  1  0.833333  0.000000  0.000000  1
  V  V13  1  0.001322  0.001577  0.492907  1
  V  V14  1  0.333333  0.000000  0.500000  1
  V  V15  1  0.665345  0.998423  0.507093  1
  O  O16  1  0.080469  0.753212  0.752517  1
  O  O17  1  0.394859  0.771688  0.771568  1
  O  O18  1  0.755065  0.744707  0.744184  1
  O  O19  1  0.073446  0.243412  0.794365  1
  O  O20  1  0.419838  0.245238  0.748419  1
  O  O21  1  0.751449  0.244644  0.756254  1
  O  O22  1  0.073561  0.794586  0.242453  1
  O  O23  1  0.419912  0.748388  0.245139  1
  O  O24  1  0.751992  0.757425  0.242932  1
  O  O25  1  0.072063  0.245658  0.245584  1
  O  O26  1  0.419379  0.246205  0.246038  1
  O  O27  1  0.750623  0.247967  0.247071  1
  O  O28  1  0.246829  0.754762  0.251581  1
  O  O29  1  0.593220  0.756588  0.205635  1
  O  O30  1  0.915218  0.755356  0.243746  1
  O  O31  1  0.271808  0.228312  0.228432  1
  O  O32  1  0.586197  0.246788  0.247483  1
  O  O33  1  0.911601  0.255293  0.255816  1
  O  O34  1  0.246755  0.251612  0.754861  1
  O  O35  1  0.593105  0.205414  0.757547  1
  O  O36  1  0.914675  0.242575  0.757068  1
  O  O37  1  0.247288  0.753795  0.753962  1
  O  O38  1  0.594603  0.754342  0.754416  1
  O  O39  1  0.916044  0.752033  0.752929  1
