# generated using pymatgen
data_Al(CoO2)2
_symmetry_space_group_name_H-M   'P 1'
_cell_length_a   5.83183863
_cell_length_b   5.83183850
_cell_length_c   5.83183881
_cell_angle_alpha   60.26508490
_cell_angle_beta   60.26509019
_cell_angle_gamma   60.26508668
_symmetry_Int_Tables_number   1
_chemical_formula_structural   Al(CoO2)2
_chemical_formula_sum   'Al2 Co4 O8'
_cell_volume   141.09106426
_cell_formula_units_Z   2
loop_
 _symmetry_equiv_pos_site_id
 _symmetry_equiv_pos_as_xyz
  1  'x, y, z'
loop_
 _atom_site_type_symbol
 _atom_site_label
 _atom_site_symmetry_multiplicity
 _atom_site_fract_x
 _atom_site_fract_y
 _atom_site_fract_z
 _atom_site_occupancy
  Al  Al0  1  0.625189  0.625189  0.625189  1
  Al  Al1  1  0.374811  0.374811  0.374811  1
  Co  Co2  1  0.000000  0.500000  0.000000  1
  Co  Co3  1  0.000000  0.000000  0.000000  1
  Co  Co4  1  0.500000  0.000000  0.000000  1
  Co  Co5  1  0.000000  0.000000  0.500000  1
  O  O6  1  0.246419  0.751756  0.751756  1
  O  O7  1  0.248244  0.248244  0.753581  1
  O  O8  1  0.248244  0.753581  0.248244  1
  O  O9  1  0.249092  0.249092  0.249092  1
  O  O10  1  0.751756  0.751756  0.246419  1
  O  O11  1  0.753581  0.248244  0.248244  1
  O  O12  1  0.751756  0.246419  0.751756  1
  O  O13  1  0.750908  0.750908  0.750908  1
