# generated using pymatgen
data_Sr2AlTlFe2O7
_symmetry_space_group_name_H-M   'P 1'
_cell_length_a   3.73702890
_cell_length_b   3.73704418
_cell_length_c   13.16891980
_cell_angle_alpha   90.05637566
_cell_angle_beta   90.02137540
_cell_angle_gamma   90.00122307
_symmetry_Int_Tables_number   1
_chemical_formula_structural   Sr2AlTlFe2O7
_chemical_formula_sum   'Sr2 Al1 Tl1 Fe2 O7'
_cell_volume   183.90968485
_cell_formula_units_Z   1
loop_
 _symmetry_equiv_pos_site_id
 _symmetry_equiv_pos_as_xyz
  1  'x, y, z'
loop_
 _atom_site_type_symbol
 _atom_site_label
 _atom_site_symmetry_multiplicity
 _atom_site_fract_x
 _atom_site_fract_y
 _atom_site_fract_z
 _atom_site_occupancy
  Sr  Sr0  1  0.499997  0.500045  0.813238  1
  Sr  Sr1  1  0.499991  0.499996  0.185442  1
  Al  Al2  1  0.499719  0.500451  0.500029  1
  Tl  Tl3  1  0.000007  0.000017  0.999606  1
  Fe  Fe4  1  0.999942  0.999832  0.639137  1
  Fe  Fe5  1  0.000054  0.000183  0.361190  1
  O  O6  1  0.499838  0.998925  0.592800  1
  O  O7  1  0.999830  0.499527  0.592825  1
  O  O8  1  0.500182  0.000579  0.408035  1
  O  O9  1  0.000450  0.500403  0.408058  1
  O  O10  1  0.000019  0.000108  0.785506  1
  O  O11  1  0.999959  0.999927  0.214840  1
  O  O12  1  0.500013  0.500008  0.999295  1
