# generated using pymatgen
data_Sr4CaFe2(SO3)2
_symmetry_space_group_name_H-M   'P 1'
_cell_length_a   3.97518697
_cell_length_b   3.97527700
_cell_length_c   16.77942765
_cell_angle_alpha   90.00030429
_cell_angle_beta   90.00012875
_cell_angle_gamma   90.00005881
_symmetry_Int_Tables_number   1
_chemical_formula_structural   Sr4CaFe2(SO3)2
_chemical_formula_sum   'Sr4 Ca1 Fe2 S2 O6'
_cell_volume   265.15639085
_cell_formula_units_Z   1
loop_
 _symmetry_equiv_pos_site_id
 _symmetry_equiv_pos_as_xyz
  1  'x, y, z'
loop_
 _atom_site_type_symbol
 _atom_site_label
 _atom_site_symmetry_multiplicity
 _atom_site_fract_x
 _atom_site_fract_y
 _atom_site_fract_z
 _atom_site_occupancy
  Sr  Sr0  1  0.749994  0.750003  0.202897  1
  Sr  Sr1  1  0.250008  0.250000  0.797099  1
  Sr  Sr2  1  0.749998  0.750000  0.417207  1
  Sr  Sr3  1  0.250005  0.249999  0.582843  1
  Ca  Ca4  1  0.250001  0.749993  0.999959  1
  Fe  Fe5  1  0.249996  0.250007  0.320230  1
  Fe  Fe6  1  0.750003  0.749998  0.679814  1
  S  S7  1  0.249994  0.249991  0.111025  1
  S  S8  1  0.750004  0.749997  0.888882  1
  O  O9  1  0.750000  0.250002  0.300245  1
  O  O10  1  0.249995  0.750000  0.299878  1
  O  O11  1  0.250003  0.750000  0.700132  1
  O  O12  1  0.750006  0.250004  0.699768  1
  O  O13  1  0.249997  0.250003  0.434764  1
  O  O14  1  0.749998  0.750005  0.565258  1
