# generated using pymatgen
data_Zn3Ge3(WO6)2
_symmetry_space_group_name_H-M   'P 1'
_cell_length_a   10.76212009
_cell_length_b   10.76211952
_cell_length_c   10.76211966
_cell_angle_alpha   109.47122090
_cell_angle_beta   109.47121982
_cell_angle_gamma   109.47121986
_symmetry_Int_Tables_number   1
_chemical_formula_structural   Zn3Ge3(WO6)2
_chemical_formula_sum   'Zn12 Ge12 W8 O48'
_cell_volume   959.55876663
_cell_formula_units_Z   4
loop_
 _symmetry_equiv_pos_site_id
 _symmetry_equiv_pos_as_xyz
  1  'x, y, z'
loop_
 _atom_site_type_symbol
 _atom_site_label
 _atom_site_symmetry_multiplicity
 _atom_site_fract_x
 _atom_site_fract_y
 _atom_site_fract_z
 _atom_site_occupancy
  Zn  Zn0  1  0.625000  0.250000  0.875000  1
  Zn  Zn1  1  0.875000  0.750000  0.625000  1
  Zn  Zn2  1  0.750000  0.625000  0.875000  1
  Zn  Zn3  1  0.250000  0.875000  0.625000  1
  Zn  Zn4  1  0.875000  0.625000  0.250000  1
  Zn  Zn5  1  0.625000  0.875000  0.750000  1
  Zn  Zn6  1  0.375000  0.750000  0.125000  1
  Zn  Zn7  1  0.125000  0.250000  0.375000  1
  Zn  Zn8  1  0.250000  0.375000  0.125000  1
  Zn  Zn9  1  0.750000  0.125000  0.375000  1
  Zn  Zn10  1  0.125000  0.375000  0.750000  1
  Zn  Zn11  1  0.375000  0.125000  0.250000  1
  Ge  Ge12  1  0.875000  0.125000  0.750000  1
  Ge  Ge13  1  0.125000  0.875000  0.250000  1
  Ge  Ge14  1  0.250000  0.625000  0.375000  1
  Ge  Ge15  1  0.125000  0.750000  0.875000  1
  Ge  Ge16  1  0.750000  0.875000  0.125000  1
  Ge  Ge17  1  0.375000  0.250000  0.625000  1
  Ge  Ge18  1  0.625000  0.750000  0.375000  1
  Ge  Ge19  1  0.875000  0.250000  0.125000  1
  Ge  Ge20  1  0.250000  0.125000  0.875000  1
  Ge  Ge21  1  0.750000  0.375000  0.625000  1
  Ge  Ge22  1  0.375000  0.625000  0.750000  1
  Ge  Ge23  1  0.625000  0.375000  0.250000  1
  W  W24  1  0.500000  0.500000  0.500000  1
  W  W25  1  0.500000  0.500000  0.000000  1
  W  W26  1  0.500000  0.000000  0.500000  1
  W  W27  1  0.000000  0.500000  0.500000  1
  W  W28  1  0.500000  0.000000  0.000000  1
  W  W29  1  0.000000  0.000000  0.500000  1
  W  W30  1  0.000000  0.500000  0.000000  1
  W  W31  1  0.000000  0.000000  0.000000  1
  O  O32  1  0.783061  0.414606  0.811495  1
  O  O33  1  0.085394  0.868454  0.396888  1
  O  O34  1  0.688505  0.103112  0.971565  1
  O  O35  1  0.716939  0.528435  0.631546  1
  O  O36  1  0.716939  0.688505  0.085394  1
  O  O37  1  0.528435  0.631546  0.716939  1
  O  O38  1  0.103112  0.631546  0.414606  1
  O  O39  1  0.631546  0.716939  0.528435  1
  O  O40  1  0.396888  0.811495  0.528435  1
  O  O41  1  0.868454  0.971565  0.783061  1
  O  O42  1  0.971565  0.783061  0.868454  1
  O  O43  1  0.085394  0.716939  0.688505  1
  O  O44  1  0.631546  0.414606  0.103112  1
  O  O45  1  0.528435  0.396888  0.811495  1
  O  O46  1  0.688505  0.085394  0.716939  1
  O  O47  1  0.414606  0.103112  0.631546  1
  O  O48  1  0.811495  0.528435  0.396888  1
  O  O49  1  0.396888  0.085394  0.868454  1
  O  O50  1  0.103112  0.971565  0.688505  1
  O  O51  1  0.603112  0.188505  0.471565  1
  O  O52  1  0.971565  0.688505  0.103112  1
  O  O53  1  0.811495  0.783061  0.414606  1
  O  O54  1  0.868454  0.396888  0.085394  1
  O  O55  1  0.783061  0.868454  0.971565  1
  O  O56  1  0.216939  0.585394  0.188505  1
  O  O57  1  0.914606  0.131546  0.603112  1
  O  O58  1  0.311495  0.896888  0.028435  1
  O  O59  1  0.283061  0.471565  0.368454  1
  O  O60  1  0.283061  0.311495  0.914606  1
  O  O61  1  0.471565  0.368454  0.283061  1
  O  O62  1  0.896888  0.368454  0.585394  1
  O  O63  1  0.368454  0.283061  0.471565  1
  O  O64  1  0.216939  0.131546  0.028435  1
  O  O65  1  0.131546  0.603112  0.914606  1
  O  O66  1  0.188505  0.216939  0.585394  1
  O  O67  1  0.585394  0.188505  0.216939  1
  O  O68  1  0.028435  0.311495  0.896888  1
  O  O69  1  0.896888  0.028435  0.311495  1
  O  O70  1  0.603112  0.914606  0.131546  1
  O  O71  1  0.188505  0.471565  0.603112  1
  O  O72  1  0.585394  0.896888  0.368454  1
  O  O73  1  0.311495  0.914606  0.283061  1
  O  O74  1  0.471565  0.603112  0.188505  1
  O  O75  1  0.368454  0.585394  0.896888  1
  O  O76  1  0.914606  0.283061  0.311495  1
  O  O77  1  0.028435  0.216939  0.131546  1
  O  O78  1  0.131546  0.028435  0.216939  1
  O  O79  1  0.414606  0.811495  0.783061  1
