# generated using pymatgen
data_Ca(NiO2)2
_symmetry_space_group_name_H-M   'P 1'
_cell_length_a   5.14256107
_cell_length_b   5.72094051
_cell_length_c   11.02057024
_cell_angle_alpha   92.54445236
_cell_angle_beta   89.89406611
_cell_angle_gamma   89.87562871
_symmetry_Int_Tables_number   1
_chemical_formula_structural   Ca(NiO2)2
_chemical_formula_sum   'Ca4 Ni8 O16'
_cell_volume   323.90728691
_cell_formula_units_Z   4
loop_
 _symmetry_equiv_pos_site_id
 _symmetry_equiv_pos_as_xyz
  1  'x, y, z'
loop_
 _atom_site_type_symbol
 _atom_site_label
 _atom_site_symmetry_multiplicity
 _atom_site_fract_x
 _atom_site_fract_y
 _atom_site_fract_z
 _atom_site_occupancy
  Ca  Ca0  1  0.841558  0.246939  0.750142  1
  Ca  Ca1  1  0.159462  0.753276  0.250010  1
  Ca  Ca2  1  0.545860  0.253664  0.250030  1
  Ca  Ca3  1  0.453963  0.746309  0.750023  1
  Ni  Ni4  1  0.505649  0.751086  0.492823  1
  Ni  Ni5  1  0.505925  0.749321  0.006912  1
  Ni  Ni6  1  0.494494  0.248843  0.507320  1
  Ni  Ni7  1  0.493793  0.250754  0.993018  1
  Ni  Ni8  1  0.000132  0.499956  0.500013  1
  Ni  Ni9  1  -0.000184  -0.000167  -0.000054  1
  Ni  Ni10  1  0.000035  0.000117  0.500061  1
  Ni  Ni11  1  -0.000159  0.500150  -0.000111  1
  O  O12  1  0.845259  0.739695  0.409751  1
  O  O13  1  0.846515  0.759481  0.090720  1
  O  O14  1  0.154702  0.260309  0.590334  1
  O  O15  1  0.154075  0.240348  0.909217  1
  O  O16  1  0.171594  0.758503  0.583579  1
  O  O17  1  0.170625  0.741670  0.915391  1
  O  O18  1  0.828478  0.241438  0.416430  1
  O  O19  1  0.828134  0.258310  0.084021  1
  O  O20  1  0.648192  0.486966  0.605961  1
  O  O21  1  0.646420  0.010998  0.894889  1
  O  O22  1  0.349062  0.017183  0.396372  1
  O  O23  1  0.350660  0.484933  0.103068  1
  O  O24  1  0.351974  0.512873  0.394180  1
  O  O25  1  0.353087  -0.012116  0.105455  1
  O  O26  1  0.651135  0.982923  0.603825  1
  O  O27  1  0.649560  0.516240  0.896618  1
