# generated using pymatgen
data_CaTiF5
_symmetry_space_group_name_H-M   'P 1'
_cell_length_a   5.62274056
_cell_length_b   7.78251567
_cell_length_c   10.31249698
_cell_angle_alpha   90.00000000
_cell_angle_beta   90.00000000
_cell_angle_gamma   109.85994789
_symmetry_Int_Tables_number   1
_chemical_formula_structural   CaTiF5
_chemical_formula_sum   'Ca4 Ti4 F20'
_cell_volume   424.42661872
_cell_formula_units_Z   4
loop_
 _symmetry_equiv_pos_site_id
 _symmetry_equiv_pos_as_xyz
  1  'x, y, z'
loop_
 _atom_site_type_symbol
 _atom_site_label
 _atom_site_symmetry_multiplicity
 _atom_site_fract_x
 _atom_site_fract_y
 _atom_site_fract_z
 _atom_site_occupancy
  Ca  Ca0  1  0.471151  0.745339  0.019273  1
  Ca  Ca1  1  0.528849  0.754661  0.519273  1
  Ca  Ca2  1  0.528849  0.254661  0.980727  1
  Ca  Ca3  1  0.471151  0.245339  0.480727  1
  Ti  Ti4  1  0.894446  0.599786  0.753982  1
  Ti  Ti5  1  0.105554  0.900214  0.253982  1
  Ti  Ti6  1  0.105554  0.400214  0.246018  1
  Ti  Ti7  1  0.894446  0.099786  0.746018  1
  F  F8  1  0.608896  0.555628  0.884107  1
  F  F9  1  0.391104  0.944372  0.384107  1
  F  F10  1  0.391104  0.444372  0.115893  1
  F  F11  1  0.608896  0.055628  0.615893  1
  F  F12  1  0.641363  0.504470  0.611266  1
  F  F13  1  0.358637  0.995530  0.111266  1
  F  F14  1  0.358637  0.495530  0.388734  1
  F  F15  1  0.641363  0.004470  0.888734  1
  F  F16  1  0.877142  0.810465  0.395988  1
  F  F17  1  0.122858  0.689535  0.895988  1
  F  F18  1  0.122858  0.189535  0.604012  1
  F  F19  1  0.877142  0.310465  0.104012  1
  F  F20  1  0.824999  0.858502  0.135911  1
  F  F21  1  0.175001  0.641498  0.635911  1
  F  F22  1  0.175001  0.141498  0.864089  1
  F  F23  1  0.824999  0.358502  0.364089  1
  F  F24  1  0.847745  0.837312  0.703279  1
  F  F25  1  0.152255  0.662688  0.203279  1
  F  F26  1  0.152255  0.162688  0.296721  1
  F  F27  1  0.847745  0.337312  0.796721  1
