# generated using pymatgen
data_Zn2FeSbO6
_symmetry_space_group_name_H-M   'P 1'
_cell_length_a   5.26897837
_cell_length_b   5.33459333
_cell_length_c   7.73904743
_cell_angle_alpha   90.00000000
_cell_angle_beta   90.00000000
_cell_angle_gamma   90.58717550
_symmetry_Int_Tables_number   1
_chemical_formula_structural   Zn2FeSbO6
_chemical_formula_sum   'Zn4 Fe2 Sb2 O12'
_cell_volume   217.51661464
_cell_formula_units_Z   2
loop_
 _symmetry_equiv_pos_site_id
 _symmetry_equiv_pos_as_xyz
  1  'x, y, z'
loop_
 _atom_site_type_symbol
 _atom_site_label
 _atom_site_symmetry_multiplicity
 _atom_site_fract_x
 _atom_site_fract_y
 _atom_site_fract_z
 _atom_site_occupancy
  Zn  Zn0  1  0.518512  0.559246  0.750000  1
  Zn  Zn1  1  0.481488  0.440754  0.250000  1
  Zn  Zn2  1  0.022147  0.018861  0.750000  1
  Zn  Zn3  1  0.977853  0.981139  0.250000  1
  Fe  Fe4  1  0.500000  0.000000  0.500000  1
  Fe  Fe5  1  0.500000  0.000000  0.000000  1
  Sb  Sb6  1  0.000000  0.500000  0.500000  1
  Sb  Sb7  1  0.000000  0.500000  0.000000  1
  O  O8  1  0.319160  0.676380  0.431979  1
  O  O9  1  0.170351  0.184521  0.068770  1
  O  O10  1  0.680840  0.323620  0.931979  1
  O  O11  1  0.829649  0.815479  0.568770  1
  O  O12  1  0.170351  0.184521  0.431230  1
  O  O13  1  0.829649  0.815479  0.931230  1
  O  O14  1  0.866057  0.577143  0.250000  1
  O  O15  1  0.319160  0.676380  0.068021  1
  O  O16  1  0.387297  0.925216  0.750000  1
  O  O17  1  0.680840  0.323620  0.568021  1
  O  O18  1  0.133943  0.422857  0.750000  1
  O  O19  1  0.612703  0.074784  0.250000  1
