# generated using pymatgen
data_Zn(WO2)2
_symmetry_space_group_name_H-M   'P 1'
_cell_length_a   3.16619625
_cell_length_b   5.47514942
_cell_length_c   10.34451182
_cell_angle_alpha   90.00000000
_cell_angle_beta   90.00000000
_cell_angle_gamma   106.80662285
_symmetry_Int_Tables_number   1
_chemical_formula_structural   Zn(WO2)2
_chemical_formula_sum   'Zn2 W4 O8'
_cell_volume   171.66649942
_cell_formula_units_Z   2
loop_
 _symmetry_equiv_pos_site_id
 _symmetry_equiv_pos_as_xyz
  1  'x, y, z'
loop_
 _atom_site_type_symbol
 _atom_site_label
 _atom_site_symmetry_multiplicity
 _atom_site_fract_x
 _atom_site_fract_y
 _atom_site_fract_z
 _atom_site_occupancy
  Zn  Zn0  1  0.389487  0.778975  0.750000  1
  Zn  Zn1  1  0.610513  0.221025  0.250000  1
  W  W2  1  0.869229  0.738461  0.073489  1
  W  W3  1  0.130771  0.261539  0.926511  1
  W  W4  1  0.869229  0.738461  0.426511  1
  W  W5  1  0.130771  0.261539  0.573489  1
  O  O6  1  0.232337  0.464677  0.387221  1
  O  O7  1  0.767663  0.535323  0.612779  1
  O  O8  1  0.767663  0.535323  0.887221  1
  O  O9  1  0.232337  0.464677  0.112779  1
  O  O10  1  0.984742  0.969486  0.250000  1
  O  O11  1  0.015258  0.030514  0.750000  1
  O  O12  1  0.500000  -0.000000  -0.000000  1
  O  O13  1  0.500000  -0.000000  0.500000  1
