# generated using pymatgen
data_Ca(VS2)4
_symmetry_space_group_name_H-M   'P 1'
_cell_length_a   7.08584511
_cell_length_b   7.12354337
_cell_length_c   7.12354416
_cell_angle_alpha   60.00000099
_cell_angle_beta   59.82384844
_cell_angle_gamma   59.82384274
_symmetry_Int_Tables_number   1
_chemical_formula_structural   Ca(VS2)4
_chemical_formula_sum   'Ca1 V4 S8'
_cell_volume   253.57554450
_cell_formula_units_Z   1
loop_
 _symmetry_equiv_pos_site_id
 _symmetry_equiv_pos_as_xyz
  1  'x, y, z'
loop_
 _atom_site_type_symbol
 _atom_site_label
 _atom_site_symmetry_multiplicity
 _atom_site_fract_x
 _atom_site_fract_y
 _atom_site_fract_z
 _atom_site_occupancy
  Ca  Ca0  1  0.500000  0.000000  0.000000  1
  V  V1  1  0.000000  0.500000  0.500000  1
  V  V2  1  0.500000  0.500000  0.000000  1
  V  V3  1  0.500000  0.500000  0.500000  1
  V  V4  1  0.500000  0.000000  0.500000  1
  S  S5  1  0.248818  0.263988  0.263988  1
  S  S6  1  0.248818  0.263988  0.723207  1
  S  S7  1  0.248818  0.723207  0.263988  1
  S  S8  1  0.723877  0.258707  0.258707  1
  S  S9  1  0.276123  0.741293  0.741293  1
  S  S10  1  0.751182  0.736012  0.276793  1
  S  S11  1  0.751182  0.276793  0.736012  1
  S  S12  1  0.751182  0.736012  0.736012  1
