# generated using pymatgen
data_BaMnZnF7
_symmetry_space_group_name_H-M   'P 1'
_cell_length_a   5.79631002
_cell_length_b   9.61454304
_cell_length_c   10.03379749
_cell_angle_alpha   90.00000000
_cell_angle_beta   90.00000000
_cell_angle_gamma   93.61404480
_symmetry_Int_Tables_number   1
_chemical_formula_structural   BaMnZnF7
_chemical_formula_sum   'Ba4 Mn4 Zn4 F28'
_cell_volume   558.06019528
_cell_formula_units_Z   4
loop_
 _symmetry_equiv_pos_site_id
 _symmetry_equiv_pos_as_xyz
  1  'x, y, z'
loop_
 _atom_site_type_symbol
 _atom_site_label
 _atom_site_symmetry_multiplicity
 _atom_site_fract_x
 _atom_site_fract_y
 _atom_site_fract_z
 _atom_site_occupancy
  Ba  Ba0  1  0.268954  0.500059  0.313624  1
  Ba  Ba1  1  0.731046  -0.000059  0.813624  1
  Ba  Ba2  1  0.731046  0.499941  0.686376  1
  Ba  Ba3  1  0.268954  0.000059  0.186376  1
  Mn  Mn4  1  0.193516  0.810998  0.609674  1
  Mn  Mn5  1  0.806484  0.189002  0.390326  1
  Mn  Mn6  1  0.193516  0.310998  0.890326  1
  Mn  Mn7  1  0.806484  0.689002  0.109674  1
  Zn  Zn8  1  0.696657  0.807773  0.400220  1
  Zn  Zn9  1  0.303343  0.692227  0.900220  1
  Zn  Zn10  1  0.696657  0.307773  0.099780  1
  Zn  Zn11  1  0.303343  0.192227  0.599780  1
  F  F12  1  0.126032  0.121320  0.440537  1
  F  F13  1  0.365660  0.369307  0.050020  1
  F  F14  1  0.477857  0.744607  0.716418  1
  F  F15  1  0.522143  0.255393  0.283582  1
  F  F16  1  0.885264  0.363488  0.458555  1
  F  F17  1  0.258731  0.489068  0.811720  1
  F  F18  1  0.024659  0.747780  0.777768  1
  F  F19  1  0.114736  0.136512  0.958555  1
  F  F20  1  0.365660  0.869307  0.449980  1
  F  F21  1  0.522143  0.755393  0.216418  1
  F  F22  1  0.126032  0.621320  0.059463  1
  F  F23  1  0.873968  0.878680  0.559463  1
  F  F24  1  0.975341  0.752220  0.277768  1
  F  F25  1  0.383249  0.881569  0.958598  1
  F  F26  1  0.114736  0.636512  0.541445  1
  F  F27  1  0.885264  0.863488  0.041445  1
  F  F28  1  0.975341  0.252220  0.222232  1
  F  F29  1  0.873968  0.378680  0.940537  1
  F  F30  1  0.616751  0.618431  0.458598  1
  F  F31  1  0.634340  0.630693  0.949980  1
  F  F32  1  0.616751  0.118431  0.041402  1
  F  F33  1  0.024659  0.247780  0.722232  1
  F  F34  1  0.383249  0.381569  0.541402  1
  F  F35  1  0.741269  0.010932  0.311720  1
  F  F36  1  0.741269  0.510932  0.188280  1
  F  F37  1  0.258731  0.989068  0.688280  1
  F  F38  1  0.634340  0.130693  0.550020  1
  F  F39  1  0.477857  0.244607  0.783582  1
