# generated using pymatgen
data_MgMn(GeO3)2
_symmetry_space_group_name_H-M   'P 1'
_cell_length_a   5.27234888
_cell_length_b   6.76618384
_cell_length_c   6.76618419
_cell_angle_alpha   86.67178618
_cell_angle_beta   82.30845689
_cell_angle_gamma   82.30844795
_symmetry_Int_Tables_number   1
_chemical_formula_structural   MgMn(GeO3)2
_chemical_formula_sum   'Mg2 Mn2 Ge4 O12'
_cell_volume   236.85281435
_cell_formula_units_Z   2
loop_
 _symmetry_equiv_pos_site_id
 _symmetry_equiv_pos_as_xyz
  1  'x, y, z'
loop_
 _atom_site_type_symbol
 _atom_site_label
 _atom_site_symmetry_multiplicity
 _atom_site_fract_x
 _atom_site_fract_y
 _atom_site_fract_z
 _atom_site_occupancy
  Mg  Mg0  1  0.750000  0.271622  0.728378  1
  Mg  Mg1  1  0.250000  0.728378  0.271622  1
  Mn  Mn2  1  0.750000  0.904653  0.095347  1
  Mn  Mn3  1  0.250000  0.095347  0.904653  1
  Ge  Ge4  1  0.784690  0.395038  0.208732  1
  Ge  Ge5  1  0.715310  0.791268  0.604962  1
  Ge  Ge6  1  0.215310  0.604962  0.791268  1
  Ge  Ge7  1  0.284690  0.208732  0.395038  1
  O  O8  1  0.594393  0.290838  0.428568  1
  O  O9  1  0.905607  0.571432  0.709162  1
  O  O10  1  0.405607  0.709162  0.571432  1
  O  O11  1  0.094393  0.428568  0.290838  1
  O  O12  1  0.110644  0.149169  0.620199  1
  O  O13  1  0.389356  0.379801  0.850831  1
  O  O14  1  0.889356  0.850831  0.379801  1
  O  O15  1  0.610644  0.620199  0.149169  1
  O  O16  1  0.857596  0.216850  0.022908  1
  O  O17  1  0.642404  0.977092  0.783150  1
  O  O18  1  0.142404  0.783150  0.977092  1
  O  O19  1  0.357596  0.022908  0.216850  1
