# generated using pymatgen
data_MgMnBiO5
_symmetry_space_group_name_H-M   'P 1'
_cell_length_a   5.26784051
_cell_length_b   10.72638202
_cell_length_c   15.28296216
_cell_angle_alpha   90.00000000
_cell_angle_beta   90.00000000
_cell_angle_gamma   90.00000000
_symmetry_Int_Tables_number   1
_chemical_formula_structural   MgMnBiO5
_chemical_formula_sum   'Mg8 Mn8 Bi8 O40'
_cell_volume   863.56178595
_cell_formula_units_Z   8
loop_
 _symmetry_equiv_pos_site_id
 _symmetry_equiv_pos_as_xyz
  1  'x, y, z'
loop_
 _atom_site_type_symbol
 _atom_site_label
 _atom_site_symmetry_multiplicity
 _atom_site_fract_x
 _atom_site_fract_y
 _atom_site_fract_z
 _atom_site_occupancy
  Mg  Mg0  1  0.493709  0.357258  0.452210  1
  Mg  Mg1  1  0.993709  0.142742  0.452210  1
  Mg  Mg2  1  0.993709  0.642742  0.047790  1
  Mg  Mg3  1  0.006291  0.357258  0.952210  1
  Mg  Mg4  1  0.506291  0.142742  0.952210  1
  Mg  Mg5  1  0.006291  0.857258  0.547790  1
  Mg  Mg6  1  0.506291  0.642742  0.547790  1
  Mg  Mg7  1  0.493709  0.857258  0.047790  1
  Mn  Mn8  1  0.978363  0.399545  0.592424  1
  Mn  Mn9  1  0.521637  0.899545  0.407576  1
  Mn  Mn10  1  0.021637  0.600455  0.407576  1
  Mn  Mn11  1  0.478363  0.100455  0.592424  1
  Mn  Mn12  1  0.021637  0.100455  0.092424  1
  Mn  Mn13  1  0.978363  0.899545  0.907576  1
  Mn  Mn14  1  0.521637  0.399545  0.092424  1
  Mn  Mn15  1  0.478363  0.600455  0.907576  1
  Bi  Bi16  1  0.971518  0.855577  0.227748  1
  Bi  Bi17  1  0.028482  0.144423  0.772252  1
  Bi  Bi18  1  0.528482  0.355577  0.772252  1
  Bi  Bi19  1  0.028482  0.644423  0.727748  1
  Bi  Bi20  1  0.471518  0.144423  0.272252  1
  Bi  Bi21  1  0.471518  0.644423  0.227748  1
  Bi  Bi22  1  0.528482  0.855577  0.727748  1
  Bi  Bi23  1  0.971518  0.355577  0.272252  1
  O  O24  1  0.939075  0.335330  0.696850  1
  O  O25  1  0.309435  0.043228  0.058820  1
  O  O26  1  0.190565  0.543228  0.941180  1
  O  O27  1  0.267375  0.772710  0.145080  1
  O  O28  1  0.232625  0.272710  0.854920  1
  O  O29  1  0.939075  0.835330  0.803150  1
  O  O30  1  0.232625  0.772710  0.645080  1
  O  O31  1  0.560925  0.835330  0.303150  1
  O  O32  1  0.309435  0.543228  0.441180  1
  O  O33  1  0.060925  0.664670  0.303150  1
  O  O34  1  0.560925  0.335330  0.196850  1
  O  O35  1  0.639768  0.193124  0.521146  1
  O  O36  1  0.809435  0.956772  0.441180  1
  O  O37  1  0.732625  0.727290  0.645080  1
  O  O38  1  0.183921  0.023352  0.881732  1
  O  O39  1  0.809435  0.456772  0.058820  1
  O  O40  1  0.060925  0.164670  0.196850  1
  O  O41  1  0.767375  0.227290  0.354920  1
  O  O42  1  0.139768  0.806876  0.978854  1
  O  O43  1  0.190565  0.043228  0.558820  1
  O  O44  1  0.360232  0.806876  0.478854  1
  O  O45  1  0.816079  0.976648  0.118268  1
  O  O46  1  0.732625  0.227290  0.854920  1
  O  O47  1  0.683921  0.976648  0.618268  1
  O  O48  1  0.360232  0.306876  0.021146  1
  O  O49  1  0.139768  0.306876  0.521146  1
  O  O50  1  0.690565  0.456772  0.558820  1
  O  O51  1  0.690565  0.956772  0.941180  1
  O  O52  1  0.683921  0.476648  0.881732  1
  O  O53  1  0.860232  0.693124  0.478854  1
  O  O54  1  0.860232  0.193124  0.021146  1
  O  O55  1  0.639768  0.693124  0.978854  1
  O  O56  1  0.816079  0.476648  0.381732  1
  O  O57  1  0.767375  0.727290  0.145080  1
  O  O58  1  0.267375  0.272710  0.354920  1
  O  O59  1  0.183921  0.523352  0.618268  1
  O  O60  1  0.316079  0.523352  0.118268  1
  O  O61  1  0.439075  0.164670  0.696850  1
  O  O62  1  0.316079  0.023352  0.381732  1
  O  O63  1  0.439075  0.664670  0.803150  1
