# generated using pymatgen
data_ZnFe(GeO3)2
_symmetry_space_group_name_H-M   'P 1'
_cell_length_a   5.50823074
_cell_length_b   9.24957361
_cell_length_c   9.84443571
_cell_angle_alpha   90.00000000
_cell_angle_beta   102.92512458
_cell_angle_gamma   90.00000000
_symmetry_Int_Tables_number   1
_chemical_formula_structural   ZnFe(GeO3)2
_chemical_formula_sum   'Zn4 Fe4 Ge8 O24'
_cell_volume   488.85406977
_cell_formula_units_Z   4
loop_
 _symmetry_equiv_pos_site_id
 _symmetry_equiv_pos_as_xyz
  1  'x, y, z'
loop_
 _atom_site_type_symbol
 _atom_site_label
 _atom_site_symmetry_multiplicity
 _atom_site_fract_x
 _atom_site_fract_y
 _atom_site_fract_z
 _atom_site_occupancy
  Zn  Zn0  1  0.451465  0.495309  0.247384  1
  Zn  Zn1  1  0.048535  0.995309  0.752616  1
  Zn  Zn2  1  0.548535  0.504691  0.752616  1
  Zn  Zn3  1  0.951465  0.004691  0.247384  1
  Fe  Fe4  1  0.958927  0.655442  0.245268  1
  Fe  Fe5  1  0.541073  0.155442  0.754732  1
  Fe  Fe6  1  0.041073  0.344558  0.754732  1
  Fe  Fe7  1  0.458927  0.844558  0.245268  1
  Ge  Ge8  1  0.812629  0.337095  0.056537  1
  Ge  Ge9  1  0.687371  0.837095  0.943463  1
  Ge  Ge10  1  0.187371  0.662905  0.943463  1
  Ge  Ge11  1  0.312629  0.162905  0.056537  1
  Ge  Ge12  1  0.235471  0.341730  0.455148  1
  Ge  Ge13  1  0.264529  0.841730  0.544852  1
  Ge  Ge14  1  0.764529  0.658270  0.544852  1
  Ge  Ge15  1  0.735471  0.158270  0.455148  1
  O  O16  1  0.489842  0.280375  0.381968  1
  O  O17  1  0.010158  0.780375  0.618032  1
  O  O18  1  0.510158  0.719625  0.618032  1
  O  O19  1  0.989842  0.219625  0.381968  1
  O  O20  1  0.149094  0.317074  0.108850  1
  O  O21  1  0.350906  0.817074  0.891151  1
  O  O22  1  0.850906  0.682926  0.891151  1
  O  O23  1  0.649094  0.182926  0.108850  1
  O  O24  1  0.700420  0.988410  0.375172  1
  O  O25  1  0.799580  0.488410  0.624828  1
  O  O26  1  0.299580  0.011590  0.624828  1
  O  O27  1  0.200420  0.511590  0.375172  1
  O  O28  1  0.222185  0.012870  0.140370  1
  O  O29  1  0.277815  0.512870  0.859630  1
  O  O30  1  0.777815  0.987130  0.859630  1
  O  O31  1  0.722185  0.487130  0.140370  1
  O  O32  1  0.749932  0.336735  0.871484  1
  O  O33  1  0.750068  0.836735  0.128516  1
  O  O34  1  0.250068  0.663265  0.128516  1
  O  O35  1  0.249932  0.163265  0.871484  1
  O  O36  1  0.319958  0.338427  0.638018  1
  O  O37  1  0.180042  0.838427  0.361982  1
  O  O38  1  0.680042  0.661573  0.361982  1
  O  O39  1  0.819958  0.161573  0.638018  1
