# generated using pymatgen
data_Sr2AlCu2SbO7
_symmetry_space_group_name_H-M   'P 1'
_cell_length_a   5.31317270
_cell_length_b   5.34158708
_cell_length_c   12.68612649
_cell_angle_alpha   102.13422058
_cell_angle_beta   102.07027171
_cell_angle_gamma   90.00226320
_symmetry_Int_Tables_number   1
_chemical_formula_structural   Sr2AlCu2SbO7
_chemical_formula_sum   'Sr4 Al2 Cu4 Sb2 O14'
_cell_volume   343.85131152
_cell_formula_units_Z   2
loop_
 _symmetry_equiv_pos_site_id
 _symmetry_equiv_pos_as_xyz
  1  'x, y, z'
loop_
 _atom_site_type_symbol
 _atom_site_label
 _atom_site_symmetry_multiplicity
 _atom_site_fract_x
 _atom_site_fract_y
 _atom_site_fract_z
 _atom_site_occupancy
  Sr  Sr0  1  0.337744  0.363592  0.717353  1
  Sr  Sr1  1  0.621840  0.639668  0.284041  1
  Sr  Sr2  1  0.838452  0.855096  0.717318  1
  Sr  Sr3  1  0.122167  0.148457  0.284058  1
  Al  Al4  1  0.990017  0.999091  0.000683  1
  Al  Al5  1  0.485981  0.497578  0.000675  1
  Cu  Cu6  1  0.929503  0.442287  0.887814  1
  Cu  Cu7  1  0.042503  0.556918  0.113121  1
  Cu  Cu8  1  0.430321  0.941802  0.887652  1
  Cu  Cu9  1  0.544822  0.057136  0.113950  1
  Sb  Sb10  1  0.240408  0.748351  0.500716  1
  Sb  Sb11  1  0.740158  0.254948  0.500692  1
  O  O12  1  0.106770  0.384683  0.500743  1
  O  O13  1  0.607050  0.618663  0.500614  1
  O  O14  1  0.257479  0.268880  0.896681  1
  O  O15  1  0.361230  0.729305  0.103594  1
  O  O16  1  0.758386  0.123817  0.897762  1
  O  O17  1  0.863794  0.876262  0.104682  1
  O  O18  1  0.610216  0.622552  0.896837  1
  O  O19  1  0.715425  0.377365  0.105601  1
  O  O20  1  0.110434  0.769743  0.895723  1
  O  O21  1  0.216216  0.229887  0.104557  1
  O  O22  1  0.331209  0.831057  0.678130  1
  O  O23  1  0.653272  0.171320  0.323236  1
  O  O24  1  0.830090  0.348242  0.678091  1
  O  O25  1  0.153778  0.654581  0.323456  1
