# generated using pymatgen
data_Ca2Fe2(SiO4)3
_symmetry_space_group_name_H-M   'P 1'
_cell_length_a   10.54848409
_cell_length_b   10.54848437
_cell_length_c   10.54848403
_cell_angle_alpha   109.40212369
_cell_angle_beta   109.60950741
_cell_angle_gamma   109.40212009
_symmetry_Int_Tables_number   1
_chemical_formula_structural   Ca2Fe2(SiO4)3
_chemical_formula_sum   'Ca8 Fe8 Si12 O48'
_cell_volume   903.53789807
_cell_formula_units_Z   4
loop_
 _symmetry_equiv_pos_site_id
 _symmetry_equiv_pos_as_xyz
  1  'x, y, z'
loop_
 _atom_site_type_symbol
 _atom_site_label
 _atom_site_symmetry_multiplicity
 _atom_site_fract_x
 _atom_site_fract_y
 _atom_site_fract_z
 _atom_site_occupancy
  Ca  Ca0  1  0.371415  0.121415  0.250000  1
  Ca  Ca1  1  0.128585  0.378585  0.750000  1
  Ca  Ca2  1  0.750000  0.121415  0.371415  1
  Ca  Ca3  1  0.750000  0.621415  0.871415  1
  Ca  Ca4  1  0.250000  0.878585  0.628585  1
  Ca  Ca5  1  0.871415  0.621415  0.250000  1
  Ca  Ca6  1  0.628585  0.878585  0.750000  1
  Ca  Ca7  1  0.250000  0.378585  0.128585  1
  Fe  Fe8  1  0.000000  0.000000  0.000000  1
  Fe  Fe9  1  0.000000  0.500000  0.000000  1
  Fe  Fe10  1  0.000000  0.000000  0.500000  1
  Fe  Fe11  1  0.000000  0.500000  0.500000  1
  Fe  Fe12  1  0.500000  0.000000  0.500000  1
  Fe  Fe13  1  0.500000  0.500000  0.000000  1
  Fe  Fe14  1  0.500000  0.500000  0.500000  1
  Fe  Fe15  1  0.500000  0.000000  0.000000  1
  Si  Si16  1  0.250000  0.127643  0.877643  1
  Si  Si17  1  0.750000  0.872357  0.122357  1
  Si  Si18  1  0.375000  0.250000  0.625000  1
  Si  Si19  1  0.622357  0.372357  0.250000  1
  Si  Si20  1  0.125000  0.750000  0.875000  1
  Si  Si21  1  0.877643  0.127643  0.750000  1
  Si  Si22  1  0.750000  0.372357  0.622357  1
  Si  Si23  1  0.377643  0.627643  0.750000  1
  Si  Si24  1  0.122357  0.872357  0.250000  1
  Si  Si25  1  0.875000  0.250000  0.125000  1
  Si  Si26  1  0.625000  0.750000  0.375000  1
  Si  Si27  1  0.250000  0.627643  0.377643  1
  O  O28  1  0.307364  0.501691  0.388011  1
  O  O29  1  0.010819  0.308100  0.892233  1
  O  O30  1  0.112709  0.605499  0.909235  1
  O  O31  1  0.192636  0.580647  0.194327  1
  O  O32  1  0.202719  0.118586  0.010819  1
  O  O33  1  0.584133  0.191900  0.202719  1
  O  O34  1  0.607767  0.191900  0.489181  1
  O  O35  1  0.196264  0.203474  0.590765  1
  O  O36  1  0.892233  0.381414  0.584133  1
  O  O37  1  0.305673  0.919353  0.307364  1
  O  O38  1  0.909235  0.296526  0.303736  1
  O  O39  1  0.007210  0.203474  0.112709  1
  O  O40  1  0.194327  0.501691  0.613680  1
  O  O41  1  0.590765  0.894501  0.387291  1
  O  O42  1  0.111989  0.998309  0.192636  1
  O  O43  1  0.492790  0.605499  0.196264  1
  O  O44  1  0.388011  0.580647  0.886320  1
  O  O45  1  0.886320  0.998309  0.305673  1
  O  O46  1  0.613680  0.919353  0.111989  1
  O  O47  1  0.107767  0.618586  0.415867  1
  O  O48  1  0.915867  0.118586  0.607767  1
  O  O49  1  0.387291  0.296526  0.492790  1
  O  O50  1  0.303736  0.894501  0.007210  1
  O  O51  1  0.297281  0.308100  0.915867  1
  O  O52  1  0.692636  0.498309  0.611989  1
  O  O53  1  0.989181  0.691900  0.107767  1
  O  O54  1  0.887291  0.394501  0.090765  1
  O  O55  1  0.807364  0.419353  0.805673  1
  O  O56  1  0.797281  0.881414  0.989181  1
  O  O57  1  0.415867  0.808100  0.797281  1
  O  O58  1  0.392233  0.808100  0.510819  1
  O  O59  1  0.803736  0.796526  0.409235  1
  O  O60  1  0.702719  0.691900  0.084133  1
  O  O61  1  0.696264  0.105499  0.992790  1
  O  O62  1  0.612709  0.703474  0.507210  1
  O  O63  1  0.510819  0.618586  0.702719  1
  O  O64  1  0.084133  0.881414  0.392233  1
  O  O65  1  0.386320  0.080647  0.888011  1
  O  O66  1  0.113680  0.001691  0.694327  1
  O  O67  1  0.611989  0.419353  0.113680  1
  O  O68  1  0.507210  0.394501  0.803736  1
  O  O69  1  0.888011  0.001691  0.807364  1
  O  O70  1  0.409235  0.105499  0.612709  1
  O  O71  1  0.805673  0.498309  0.386320  1
  O  O72  1  0.992790  0.796526  0.887291  1
  O  O73  1  0.090765  0.703474  0.696264  1
  O  O74  1  0.694327  0.080647  0.692636  1
  O  O75  1  0.489181  0.381414  0.297281  1
