# generated using pymatgen
data_CaTiBiO5
_symmetry_space_group_name_H-M   'P 1'
_cell_length_a   5.88465198
_cell_length_b   8.86413294
_cell_length_c   10.88526062
_cell_angle_alpha   90.00000000
_cell_angle_beta   90.00000000
_cell_angle_gamma   111.38442028
_symmetry_Int_Tables_number   1
_chemical_formula_structural   CaTiBiO5
_chemical_formula_sum   'Ca4 Ti4 Bi4 O20'
_cell_volume   528.71040151
_cell_formula_units_Z   4
loop_
 _symmetry_equiv_pos_site_id
 _symmetry_equiv_pos_as_xyz
  1  'x, y, z'
loop_
 _atom_site_type_symbol
 _atom_site_label
 _atom_site_symmetry_multiplicity
 _atom_site_fract_x
 _atom_site_fract_y
 _atom_site_fract_z
 _atom_site_occupancy
  Ca  Ca0  1  0.643336  0.177264  0.903044  1
  Ca  Ca1  1  0.356664  0.822736  0.096956  1
  Ca  Ca2  1  0.856664  0.322736  0.403044  1
  Ca  Ca3  1  0.143336  0.677264  0.596956  1
  Ti  Ti4  1  0.821468  0.947574  0.619707  1
  Ti  Ti5  1  0.178532  0.052425  0.380293  1
  Ti  Ti6  1  0.678532  0.552426  0.119707  1
  Ti  Ti7  1  0.321468  0.447575  0.880293  1
  Bi  Bi8  1  0.131928  0.155209  0.101056  1
  Bi  Bi9  1  0.868072  0.844791  0.898944  1
  Bi  Bi10  1  0.631928  0.655209  0.398944  1
  Bi  Bi11  1  0.368072  0.344791  0.601056  1
  O  O12  1  0.500060  0.353065  0.042823  1
  O  O13  1  0.043779  0.319509  0.963257  1
  O  O14  1  0.503016  0.661251  0.205763  1
  O  O15  1  0.734498  0.508016  0.536006  1
  O  O16  1  0.792634  0.505269  0.265624  1
  O  O17  1  0.292634  0.005269  0.234376  1
  O  O18  1  0.543779  0.819509  0.536743  1
  O  O19  1  0.456221  0.180491  0.463257  1
  O  O20  1  0.265502  0.491984  0.463994  1
  O  O21  1  0.999940  0.146935  0.542823  1
  O  O22  1  0.207366  0.494731  0.734376  1
  O  O23  1  0.499940  0.646935  0.957177  1
  O  O24  1  0.000060  0.853065  0.457177  1
  O  O25  1  0.707366  0.994731  0.765624  1
  O  O26  1  0.765502  0.991984  0.036006  1
  O  O27  1  0.234498  0.008016  0.963994  1
  O  O28  1  0.496984  0.338749  0.794237  1
  O  O29  1  0.956221  0.680491  0.036743  1
  O  O30  1  0.996984  0.838749  0.705763  1
  O  O31  1  0.003016  0.161251  0.294237  1
