# generated using pymatgen
data_Sr3Cr2Cu2S2O5
_symmetry_space_group_name_H-M   'P 1'
_cell_length_a   3.95897312
_cell_length_b   3.95897312
_cell_length_c   13.45725511
_cell_angle_alpha   98.45858052
_cell_angle_beta   98.45858052
_cell_angle_gamma   90.00000000
_symmetry_Int_Tables_number   1
_chemical_formula_structural   Sr3Cr2Cu2S2O5
_chemical_formula_sum   'Sr3 Cr2 Cu2 S2 O5'
_cell_volume   206.30772344
_cell_formula_units_Z   1
loop_
 _symmetry_equiv_pos_site_id
 _symmetry_equiv_pos_as_xyz
  1  'x, y, z'
loop_
 _atom_site_type_symbol
 _atom_site_label
 _atom_site_symmetry_multiplicity
 _atom_site_fract_x
 _atom_site_fract_y
 _atom_site_fract_z
 _atom_site_occupancy
  Sr  Sr0  1  0.500000  0.500000  0.000000  1
  Sr  Sr1  1  0.641019  0.641019  0.282039  1
  Sr  Sr2  1  0.358981  0.358981  0.717961  1
  Cr  Cr3  1  0.072719  0.072719  0.145437  1
  Cr  Cr4  1  0.927281  0.927281  0.854563  1
  Cu  Cu5  1  0.250000  0.750000  0.500000  1
  Cu  Cu6  1  0.750000  0.250000  0.500000  1
  S  S7  1  0.197242  0.197242  0.394485  1
  S  S8  1  0.802758  0.802758  0.605515  1
  O  O9  1  0.081882  0.581882  0.163763  1
  O  O10  1  0.581882  0.081882  0.163763  1
  O  O11  1  0.918118  0.418118  0.836237  1
  O  O12  1  0.418118  0.918118  0.836237  1
  O  O13  1  0.000000  0.000000  0.000000  1
