# generated using pymatgen
data_Zn2CoWO6
_symmetry_space_group_name_H-M   'P 1'
_cell_length_a   5.24984774
_cell_length_b   5.27220346
_cell_length_c   7.87711747
_cell_angle_alpha   90.00000000
_cell_angle_beta   88.78660340
_cell_angle_gamma   90.00000000
_symmetry_Int_Tables_number   1
_chemical_formula_structural   Zn2CoWO6
_chemical_formula_sum   'Zn4 Co2 W2 O12'
_cell_volume   217.97605794
_cell_formula_units_Z   2
loop_
 _symmetry_equiv_pos_site_id
 _symmetry_equiv_pos_as_xyz
  1  'x, y, z'
loop_
 _atom_site_type_symbol
 _atom_site_label
 _atom_site_symmetry_multiplicity
 _atom_site_fract_x
 _atom_site_fract_y
 _atom_site_fract_z
 _atom_site_occupancy
  Zn  Zn0  1  0.008919  0.030962  0.255214  1
  Zn  Zn1  1  0.491081  0.530963  0.244786  1
  Zn  Zn2  1  0.991082  0.969039  0.744786  1
  Zn  Zn3  1  0.508918  0.469038  0.755214  1
  Co  Co4  1  0.500000  0.000000  0.000000  1
  Co  Co5  1  0.000001  0.499999  0.500000  1
  W  W6  1  0.500000  0.000000  0.499999  1
  W  W7  1  0.000000  0.499999  0.000000  1
  O  O8  1  0.656256  0.312761  0.419972  1
  O  O9  1  0.843744  0.812762  0.080028  1
  O  O10  1  0.343743  0.687239  0.580028  1
  O  O11  1  0.156257  0.187238  0.919972  1
  O  O12  1  0.181328  0.169913  0.555565  1
  O  O13  1  0.318672  0.669912  0.944435  1
  O  O14  1  0.818673  0.830087  0.444435  1
  O  O15  1  0.681327  0.330088  0.055565  1
  O  O16  1  0.117978  0.412056  0.233113  1
  O  O17  1  0.382023  0.912057  0.266886  1
  O  O18  1  0.617978  0.087943  0.733114  1
  O  O19  1  0.882023  0.587944  0.766887  1
