# generated using pymatgen
data_Ge2SbO6
_symmetry_space_group_name_H-M   'P 1'
_cell_length_a   5.74505376
_cell_length_b   7.00139282
_cell_length_c   7.00139348
_cell_angle_alpha   84.66354200
_cell_angle_beta   76.13483382
_cell_angle_gamma   76.13482921
_symmetry_Int_Tables_number   1
_chemical_formula_structural   Ge2SbO6
_chemical_formula_sum   'Ge4 Sb2 O12'
_cell_volume   265.25815582
_cell_formula_units_Z   2
loop_
 _symmetry_equiv_pos_site_id
 _symmetry_equiv_pos_as_xyz
  1  'x, y, z'
loop_
 _atom_site_type_symbol
 _atom_site_label
 _atom_site_symmetry_multiplicity
 _atom_site_fract_x
 _atom_site_fract_y
 _atom_site_fract_z
 _atom_site_occupancy
  Ge  Ge0  1  0.757317  0.380937  0.216999  1
  Ge  Ge1  1  0.742683  0.783001  0.619063  1
  Ge  Ge2  1  0.242683  0.619063  0.783001  1
  Ge  Ge3  1  0.257317  0.216999  0.380937  1
  Sb  Sb4  1  0.750000  0.885117  0.114883  1
  Sb  Sb5  1  0.250000  0.114883  0.885117  1
  O  O6  1  0.493984  0.336057  0.387123  1
  O  O7  1  0.006016  0.612877  0.663943  1
  O  O8  1  0.506016  0.663943  0.612877  1
  O  O9  1  0.993984  0.387123  0.336057  1
  O  O10  1  0.190453  0.098196  0.613482  1
  O  O11  1  0.309547  0.386519  0.901804  1
  O  O12  1  0.809547  0.901804  0.386519  1
  O  O13  1  0.690453  0.613482  0.098196  1
  O  O14  1  0.873056  0.178157  0.048310  1
  O  O15  1  0.626944  0.951690  0.821843  1
  O  O16  1  0.126944  0.821843  0.951690  1
  O  O17  1  0.373056  0.048310  0.178157  1
