# generated using pymatgen
data_Al(BiO3)3
_symmetry_space_group_name_H-M   'P 1'
_cell_length_a   5.79432557
_cell_length_b   17.43301448
_cell_length_c   5.79348095
_cell_angle_alpha   54.66112932
_cell_angle_beta   54.34891061
_cell_angle_gamma   54.65752717
_symmetry_Int_Tables_number   1
_chemical_formula_structural   Al(BiO3)3
_chemical_formula_sum   'Al2 Bi6 O18'
_cell_volume   361.29072124
_cell_formula_units_Z   2
loop_
 _symmetry_equiv_pos_site_id
 _symmetry_equiv_pos_as_xyz
  1  'x, y, z'
loop_
 _atom_site_type_symbol
 _atom_site_label
 _atom_site_symmetry_multiplicity
 _atom_site_fract_x
 _atom_site_fract_y
 _atom_site_fract_z
 _atom_site_occupancy
  Al  Al0  1  0.724087  0.570303  0.711894  1
  Al  Al1  1  0.211800  0.070321  0.224188  1
  Bi  Bi2  1  0.046584  0.334146  0.027089  1
  Bi  Bi3  1  0.010827  0.685777  0.006276  1
  Bi  Bi4  1  0.001958  0.004068  0.030259  1
  Bi  Bi5  1  0.506251  0.186003  0.510472  1
  Bi  Bi6  1  0.530279  0.504096  0.501859  1
  Bi  Bi7  1  0.527091  0.833950  0.547073  1
  O  O8  1  0.454499  0.267182  0.091465  1
  O  O9  1  0.460431  0.597413  0.077281  1
  O  O10  1  0.388878  0.945200  0.159212  1
  O  O11  1  0.960224  0.193141  0.301519  1
  O  O12  1  0.905190  0.551508  0.332169  1
  O  O13  1  0.930786  0.867706  0.301255  1
  O  O14  1  0.140632  0.130328  0.849299  1
  O  O15  1  0.094325  0.486156  0.785927  1
  O  O16  1  0.103506  0.815946  0.798196  1
  O  O17  1  0.577389  0.097374  0.960431  1
  O  O18  1  0.659280  0.445174  0.888860  1
  O  O19  1  0.591102  0.767297  0.954323  1
  O  O20  1  0.298327  0.315841  0.603367  1
  O  O21  1  0.349109  0.630371  0.640715  1
  O  O22  1  0.285988  0.986151  0.594295  1
  O  O23  1  0.801175  0.367682  0.430712  1
  O  O24  1  0.801462  0.693231  0.460095  1
  O  O25  1  0.832261  0.051449  0.405204  1
