# generated using pymatgen
data_ZnSn3O7
_symmetry_space_group_name_H-M   'P 1'
_cell_length_a   5.26311765
_cell_length_b   10.43574431
_cell_length_c   10.29611350
_cell_angle_alpha   90.00000000
_cell_angle_beta   90.00000000
_cell_angle_gamma   90.00000000
_symmetry_Int_Tables_number   1
_chemical_formula_structural   ZnSn3O7
_chemical_formula_sum   'Zn4 Sn12 O28'
_cell_volume   565.50940145
_cell_formula_units_Z   4
loop_
 _symmetry_equiv_pos_site_id
 _symmetry_equiv_pos_as_xyz
  1  'x, y, z'
loop_
 _atom_site_type_symbol
 _atom_site_label
 _atom_site_symmetry_multiplicity
 _atom_site_fract_x
 _atom_site_fract_y
 _atom_site_fract_z
 _atom_site_occupancy
  Zn  Zn0  1  0.662297  0.750000  0.880533  1
  Zn  Zn1  1  0.162297  0.250000  0.619467  1
  Zn  Zn2  1  0.337703  0.250000  0.119467  1
  Zn  Zn3  1  0.837703  0.750000  0.380533  1
  Sn  Sn4  1  0.362287  -0.011676  0.358093  1
  Sn  Sn5  1  0.862287  0.011676  0.141907  1
  Sn  Sn6  1  0.637713  0.488324  0.641907  1
  Sn  Sn7  1  0.137713  0.511676  0.858093  1
  Sn  Sn8  1  0.321715  0.750000  0.149554  1
  Sn  Sn9  1  0.821715  0.250000  0.350446  1
  Sn  Sn10  1  0.678285  0.250000  0.850446  1
  Sn  Sn11  1  0.178285  0.750000  0.649554  1
  Sn  Sn12  1  0.862287  0.488324  0.141907  1
  Sn  Sn13  1  0.362287  0.511676  0.358093  1
  Sn  Sn14  1  0.137713  -0.011676  0.858093  1
  Sn  Sn15  1  0.637713  0.011676  0.641907  1
  O  O16  1  0.914311  0.121193  0.753233  1
  O  O17  1  0.414311  0.878807  0.746767  1
  O  O18  1  0.085689  0.621193  0.246767  1
  O  O19  1  0.585689  0.378807  0.253233  1
  O  O20  1  0.085689  0.878807  0.246767  1
  O  O21  1  0.585689  0.121193  0.253233  1
  O  O22  1  0.914311  0.378807  0.753233  1
  O  O23  1  0.414311  0.621193  0.746767  1
  O  O24  1  0.421052  0.119655  0.782383  1
  O  O25  1  0.921052  0.880345  0.717617  1
  O  O26  1  0.578948  0.619655  0.217617  1
  O  O27  1  0.078948  0.380345  0.282383  1
  O  O28  1  0.578948  0.880345  0.217617  1
  O  O29  1  0.078948  0.119655  0.282383  1
  O  O30  1  0.421052  0.380345  0.782383  1
  O  O31  1  0.921052  0.619655  0.717617  1
  O  O32  1  0.194841  0.750000  0.460714  1
  O  O33  1  0.694841  0.250000  0.039286  1
  O  O34  1  0.805159  0.250000  0.539286  1
  O  O35  1  0.305159  0.750000  -0.039286  1
  O  O36  1  0.173257  0.414541  0.031620  1
  O  O37  1  0.673257  0.585459  0.468380  1
  O  O38  1  0.826743  0.914541  0.968380  1
  O  O39  1  0.326743  0.085459  0.531620  1
  O  O40  1  0.826743  0.585459  0.968380  1
  O  O41  1  0.326743  0.414541  0.531620  1
  O  O42  1  0.173257  0.085459  0.031620  1
  O  O43  1  0.673257  0.914541  0.468380  1
