# generated using pymatgen
data_MnZnO2
_symmetry_space_group_name_H-M   'P 1'
_cell_length_a   3.13149606
_cell_length_b   8.16517836
_cell_length_c   8.81782949
_cell_angle_alpha   88.08667089
_cell_angle_beta   74.24972614
_cell_angle_gamma   88.05010176
_symmetry_Int_Tables_number   1
_chemical_formula_structural   MnZnO2
_chemical_formula_sum   'Mn4 Zn4 O8'
_cell_volume   216.80570822
_cell_formula_units_Z   4
loop_
 _symmetry_equiv_pos_site_id
 _symmetry_equiv_pos_as_xyz
  1  'x, y, z'
loop_
 _atom_site_type_symbol
 _atom_site_label
 _atom_site_symmetry_multiplicity
 _atom_site_fract_x
 _atom_site_fract_y
 _atom_site_fract_z
 _atom_site_occupancy
  Mn  Mn0  1  0.443583  0.237205  0.586211  1
  Mn  Mn1  1  0.066707  0.401448  0.229861  1
  Mn  Mn2  1  0.927862  0.578376  0.798366  1
  Mn  Mn3  1  0.552546  0.742585  0.441912  1
  Zn  Zn4  1  0.392828  0.074606  0.266143  1
  Zn  Zn5  1  0.604336  0.905282  0.762191  1
  Zn  Zn6  1  0.123792  0.737093  0.128948  1
  Zn  Zn7  1  0.873485  0.242894  0.899283  1
  O  O8  1  0.935100  0.737343  0.599354  1
  O  O9  1  0.440875  0.380709  0.784103  1
  O  O10  1  0.554657  0.599360  0.243999  1
  O  O11  1  0.060865  0.242589  0.428805  1
  O  O12  1  0.089564  0.058199  0.757890  1
  O  O13  1  0.654989  0.262029  0.121478  1
  O  O14  1  0.907400  0.921628  0.270449  1
  O  O15  1  0.339690  0.717991  0.906624  1
