# generated using pymatgen
data_ZnSn4O9
_symmetry_space_group_name_H-M   'P 1'
_cell_length_a   5.07890245
_cell_length_b   8.17947408
_cell_length_c   8.17854745
_cell_angle_alpha   89.99561860
_cell_angle_beta   89.99941077
_cell_angle_gamma   89.99550336
_symmetry_Int_Tables_number   1
_chemical_formula_structural   ZnSn4O9
_chemical_formula_sum   'Zn2 Sn8 O18'
_cell_volume   339.75935799
_cell_formula_units_Z   2
loop_
 _symmetry_equiv_pos_site_id
 _symmetry_equiv_pos_as_xyz
  1  'x, y, z'
loop_
 _atom_site_type_symbol
 _atom_site_label
 _atom_site_symmetry_multiplicity
 _atom_site_fract_x
 _atom_site_fract_y
 _atom_site_fract_z
 _atom_site_occupancy
  Zn  Zn0  1  0.203652  0.249971  0.250014  1
  Zn  Zn1  1  0.796341  0.750027  0.749989  1
  Sn  Sn2  1  0.726111  0.563147  0.367145  1
  Sn  Sn3  1  0.274053  0.867078  0.436861  1
  Sn  Sn4  1  0.725933  0.367074  0.936827  1
  Sn  Sn5  1  0.273918  0.063136  0.867126  1
  Sn  Sn6  1  0.726081  0.936864  0.132874  1
  Sn  Sn7  1  0.725947  0.132921  0.563138  1
  Sn  Sn8  1  0.273891  0.436853  0.632855  1
  Sn  Sn9  1  0.274068  0.632924  0.063169  1
  O  O10  1  0.500104  0.750013  0.250019  1
  O  O11  1  0.499895  0.249987  0.749981  1
  O  O12  1  0.916281  0.735603  0.004342  1
  O  O13  1  0.916016  0.495599  0.735463  1
  O  O14  1  0.916094  0.004407  0.764481  1
  O  O15  1  0.916241  0.764441  0.495653  1
  O  O16  1  0.083723  0.264401  0.995659  1
  O  O17  1  0.083989  0.504400  0.264537  1
  O  O18  1  0.083904  0.995592  0.235520  1
  O  O19  1  0.083762  0.235557  0.504350  1
  O  O20  1  0.566276  0.038817  0.353335  1
  O  O21  1  0.566082  0.146682  0.038877  1
  O  O22  1  0.566092  0.353327  0.461094  1
  O  O23  1  0.566435  0.461257  0.146644  1
  O  O24  1  0.433570  0.538748  0.853350  1
  O  O25  1  0.433920  0.853319  0.961123  1
  O  O26  1  0.433904  0.646672  0.538903  1
  O  O27  1  0.433724  0.961183  0.646667  1
