# generated using pymatgen
data_NiO2
_symmetry_space_group_name_H-M   'P 1'
_cell_length_a   2.84317358
_cell_length_b   6.89083385
_cell_length_c   6.90289226
_cell_angle_alpha   87.77487359
_cell_angle_beta   78.10195659
_cell_angle_gamma   78.11125416
_symmetry_Int_Tables_number   1
_chemical_formula_structural   NiO2
_chemical_formula_sum   'Ni4 O8'
_cell_volume   129.49524598
_cell_formula_units_Z   4
loop_
 _symmetry_equiv_pos_site_id
 _symmetry_equiv_pos_as_xyz
  1  'x, y, z'
loop_
 _atom_site_type_symbol
 _atom_site_label
 _atom_site_symmetry_multiplicity
 _atom_site_fract_x
 _atom_site_fract_y
 _atom_site_fract_z
 _atom_site_occupancy
  Ni  Ni0  1  0.653854  0.181977  0.516892  1
  Ni  Ni1  1  0.169415  0.483119  0.182541  1
  Ni  Ni2  1  0.834296  0.517283  0.819656  1
  Ni  Ni3  1  0.350161  0.818200  0.485630  1
  O  O4  1  0.826231  0.719916  0.631670  1
  O  O5  1  0.457051  0.372236  0.718992  1
  O  O6  1  0.546087  0.629292  0.282133  1
  O  O7  1  0.178812  0.279300  0.369859  1
  O  O8  1  0.156210  0.049561  0.643379  1
  O  O9  1  0.799317  0.357869  0.048147  1
  O  O10  1  0.846774  0.950883  0.359933  1
  O  O11  1  0.204644  0.642540  0.953985  1
