# generated using pymatgen
data_ZnCr2O4
_symmetry_space_group_name_H-M   'P 1'
_cell_length_a   2.94047108
_cell_length_b   9.95358380
_cell_length_c   9.66754772
_cell_angle_alpha   90.00000000
_cell_angle_beta   90.00000000
_cell_angle_gamma   90.00000000
_symmetry_Int_Tables_number   1
_chemical_formula_structural   ZnCr2O4
_chemical_formula_sum   'Zn4 Cr8 O16'
_cell_volume   282.95196483
_cell_formula_units_Z   4
loop_
 _symmetry_equiv_pos_site_id
 _symmetry_equiv_pos_as_xyz
  1  'x, y, z'
loop_
 _atom_site_type_symbol
 _atom_site_label
 _atom_site_symmetry_multiplicity
 _atom_site_fract_x
 _atom_site_fract_y
 _atom_site_fract_z
 _atom_site_occupancy
  Zn  Zn0  1  0.329674  0.750000  0.145553  1
  Zn  Zn1  1  0.329674  0.250000  0.354447  1
  Zn  Zn2  1  0.670326  0.750000  0.645553  1
  Zn  Zn3  1  0.670326  0.250000  0.854447  1
  Cr  Cr4  1  0.768764  0.570263  0.383109  1
  Cr  Cr5  1  0.768764  0.070263  0.116891  1
  Cr  Cr6  1  0.231236  0.070263  0.616891  1
  Cr  Cr7  1  0.768764  0.429737  0.116891  1
  Cr  Cr8  1  0.231236  0.429737  0.616891  1
  Cr  Cr9  1  0.768764  0.929737  0.383109  1
  Cr  Cr10  1  0.231236  0.929737  0.883109  1
  Cr  Cr11  1  0.231236  0.570263  0.883109  1
  O  O12  1  0.267686  0.889673  0.518226  1
  O  O13  1  0.732314  0.110327  0.481774  1
  O  O14  1  0.272137  0.000000  0.250000  1
  O  O15  1  0.732314  0.889673  0.018226  1
  O  O16  1  0.732314  0.610327  0.018226  1
  O  O17  1  0.817680  0.250000  0.211130  1
  O  O18  1  0.267686  0.110327  0.981774  1
  O  O19  1  0.182320  0.250000  0.711130  1
  O  O20  1  0.272137  0.500000  0.250000  1
  O  O21  1  0.727863  0.000000  0.750000  1
  O  O22  1  0.267686  0.610327  0.518226  1
  O  O23  1  0.182320  0.750000  0.788870  1
  O  O24  1  0.817680  0.750000  0.288870  1
  O  O25  1  0.727863  0.500000  0.750000  1
  O  O26  1  0.267686  0.389673  0.981774  1
  O  O27  1  0.732314  0.389673  0.481774  1
