# generated using pymatgen
data_MgTiF6
_symmetry_space_group_name_H-M   'P 1'
_cell_length_a   5.43469573
_cell_length_b   5.43469518
_cell_length_c   5.43469485
_cell_angle_alpha   58.13388050
_cell_angle_beta   58.13387901
_cell_angle_gamma   58.13388384
_symmetry_Int_Tables_number   1
_chemical_formula_structural   MgTiF6
_chemical_formula_sum   'Mg1 Ti1 F6'
_cell_volume   108.64865514
_cell_formula_units_Z   1
loop_
 _symmetry_equiv_pos_site_id
 _symmetry_equiv_pos_as_xyz
  1  'x, y, z'
loop_
 _atom_site_type_symbol
 _atom_site_label
 _atom_site_symmetry_multiplicity
 _atom_site_fract_x
 _atom_site_fract_y
 _atom_site_fract_z
 _atom_site_occupancy
  Mg  Mg0  1  0.500000  0.500000  0.500000  1
  Ti  Ti1  1  0.000000  0.000000  0.000000  1
  F  F2  1  0.328383  0.155407  0.759529  1
  F  F3  1  0.155407  0.759529  0.328383  1
  F  F4  1  0.240471  0.671617  0.844593  1
  F  F5  1  0.844593  0.240471  0.671617  1
  F  F6  1  0.671617  0.844593  0.240471  1
  F  F7  1  0.759529  0.328383  0.155407  1
