# generated using pymatgen
data_YMn3F15
_symmetry_space_group_name_H-M   'P 1'
_cell_length_a   9.16766605
_cell_length_b   6.08416267
_cell_length_c   11.60468895
_cell_angle_alpha   90.00000000
_cell_angle_beta   90.00000000
_cell_angle_gamma   104.62380077
_symmetry_Int_Tables_number   1
_chemical_formula_structural   YMn3F15
_chemical_formula_sum   'Y2 Mn6 F30'
_cell_volume   626.31228546
_cell_formula_units_Z   2
loop_
 _symmetry_equiv_pos_site_id
 _symmetry_equiv_pos_as_xyz
  1  'x, y, z'
loop_
 _atom_site_type_symbol
 _atom_site_label
 _atom_site_symmetry_multiplicity
 _atom_site_fract_x
 _atom_site_fract_y
 _atom_site_fract_z
 _atom_site_occupancy
  Y  Y0  1  0.922506  0.472815  0.250000  1
  Y  Y1  1  0.410827  0.527185  0.750000  1
  Mn  Mn2  1  0.166667  -0.000000  0.500000  1
  Mn  Mn3  1  0.501064  0.013709  0.501475  1
  Mn  Mn4  1  0.832269  0.986291  0.498525  1
  Mn  Mn5  1  0.166667  -0.000000  0.000000  1
  Mn  Mn6  1  0.501064  0.013709  0.998525  1
  Mn  Mn7  1  0.832269  0.986291  0.001475  1
  F  F8  1  0.140681  0.654056  0.250000  1
  F  F9  1  0.437244  0.644333  0.250000  1
  F  F10  1  0.768966  0.662490  0.250000  1
  F  F11  1  0.192652  0.345944  0.750000  1
  F  F12  1  0.564368  0.337510  0.750000  1
  F  F13  1  0.896089  0.355667  0.750000  1
  F  F14  1  0.020388  0.107036  0.583333  1
  F  F15  1  0.344063  0.133278  0.588717  1
  F  F16  1  0.690501  0.116299  0.584577  1
  F  F17  1  0.312946  0.892964  0.416667  1
  F  F18  1  0.642832  0.883701  0.415423  1
  F  F19  1  0.989270  0.866722  0.411283  1
  F  F20  1  0.133329  0.750785  0.912912  1
  F  F21  1  0.455038  0.755698  0.899304  1
  F  F22  1  0.788133  0.741044  0.916042  1
  F  F23  1  0.200005  0.249215  0.087088  1
  F  F24  1  0.545200  0.258956  0.083958  1
  F  F25  1  0.878295  0.244302  0.100695  1
  F  F26  1  0.200005  0.249215  0.412912  1
  F  F27  1  0.545200  0.258956  0.416042  1
  F  F28  1  0.878295  0.244302  0.399305  1
  F  F29  1  0.133329  0.750785  0.587088  1
  F  F30  1  0.455038  0.755698  0.600696  1
  F  F31  1  0.788133  0.741044  0.583958  1
  F  F32  1  0.020388  0.107036  0.916667  1
  F  F33  1  0.344063  0.133278  0.911283  1
  F  F34  1  0.690501  0.116299  0.915423  1
  F  F35  1  0.312946  0.892964  0.083333  1
  F  F36  1  0.642832  0.883701  0.084577  1
  F  F37  1  0.989270  0.866722  0.088717  1
