# generated using pymatgen
data_CaW2O5
_symmetry_space_group_name_H-M   'P 1'
_cell_length_a   4.25887065
_cell_length_b   5.89643648
_cell_length_c   11.76752530
_cell_angle_alpha   90.00000000
_cell_angle_beta   90.00000000
_cell_angle_gamma   111.16999535
_symmetry_Int_Tables_number   1
_chemical_formula_structural   CaW2O5
_chemical_formula_sum   'Ca2 W4 O10'
_cell_volume   275.56504834
_cell_formula_units_Z   2
loop_
 _symmetry_equiv_pos_site_id
 _symmetry_equiv_pos_as_xyz
  1  'x, y, z'
loop_
 _atom_site_type_symbol
 _atom_site_label
 _atom_site_symmetry_multiplicity
 _atom_site_fract_x
 _atom_site_fract_y
 _atom_site_fract_z
 _atom_site_occupancy
  Ca  Ca0  1  0.899931  0.799891  0.750000  1
  Ca  Ca1  1  0.100070  0.200110  0.250000  1
  W  W2  1  0.206084  0.412199  0.595387  1
  W  W3  1  0.793917  0.587802  0.404612  1
  W  W4  1  0.793917  0.587802  0.095388  1
  W  W5  1  0.206084  0.412199  0.904613  1
  O  O6  1  0.702911  0.405797  0.250000  1
  O  O7  1  0.297090  0.594204  0.750000  1
  O  O8  1  0.256530  0.513067  0.073424  1
  O  O9  1  0.743472  0.486934  0.926576  1
  O  O10  1  0.743472  0.486934  0.573424  1
  O  O11  1  0.256530  0.513067  0.426575  1
  O  O12  1  0.039218  0.078466  0.619342  1
  O  O13  1  0.960782  0.921533  0.380658  1
  O  O14  1  0.039218  0.078466  0.880658  1
  O  O15  1  0.960782  0.921533  0.119343  1
