# generated using pymatgen
data_Ta(WO4)2
_symmetry_space_group_name_H-M   'P 1'
_cell_length_a   5.15500776
_cell_length_b   5.89521580
_cell_length_c   9.36365018
_cell_angle_alpha   90.00000000
_cell_angle_beta   90.14829390
_cell_angle_gamma   90.00000000
_symmetry_Int_Tables_number   1
_chemical_formula_structural   Ta(WO4)2
_chemical_formula_sum   'Ta2 W4 O16'
_cell_volume   284.55928191
_cell_formula_units_Z   2
loop_
 _symmetry_equiv_pos_site_id
 _symmetry_equiv_pos_as_xyz
  1  'x, y, z'
loop_
 _atom_site_type_symbol
 _atom_site_label
 _atom_site_symmetry_multiplicity
 _atom_site_fract_x
 _atom_site_fract_y
 _atom_site_fract_z
 _atom_site_occupancy
  Ta  Ta0  1  0.750000  0.381752  0.250000  1
  Ta  Ta1  1  0.250000  0.618247  0.750000  1
  W  W2  1  0.236145  0.150402  0.495027  1
  W  W3  1  0.263854  0.150402  0.004974  1
  W  W4  1  0.763855  0.849598  0.504973  1
  W  W5  1  0.736146  0.849598  0.995026  1
  O  O6  1  0.428169  0.342721  0.139819  1
  O  O7  1  0.071830  0.342721  0.360180  1
  O  O8  1  0.571831  0.657278  0.860181  1
  O  O9  1  0.928169  0.657278  0.639820  1
  O  O10  1  0.424859  0.880396  0.609112  1
  O  O11  1  0.075141  0.880396  0.890888  1
  O  O12  1  0.575141  0.119604  0.390888  1
  O  O13  1  0.924859  0.119604  0.109112  1
  O  O14  1  0.862175  0.607271  0.117187  1
  O  O15  1  0.637825  0.607271  0.382813  1
  O  O16  1  0.137825  0.392730  0.882813  1
  O  O17  1  0.362175  0.392730  0.617187  1
  O  O18  1  0.438730  0.892295  0.110604  1
  O  O19  1  0.561270  0.107706  0.889396  1
  O  O20  1  0.061271  0.892295  0.389397  1
  O  O21  1  0.938729  0.107706  0.610603  1
