# generated using pymatgen
data_Ti2ZnO4
_symmetry_space_group_name_H-M   'P 1'
_cell_length_a   2.95133211
_cell_length_b   9.47097026
_cell_length_c   10.82969809
_cell_angle_alpha   90.04591912
_cell_angle_beta   89.99961734
_cell_angle_gamma   89.99983919
_symmetry_Int_Tables_number   1
_chemical_formula_structural   Ti2ZnO4
_chemical_formula_sum   'Ti8 Zn4 O16'
_cell_volume   302.71139252
_cell_formula_units_Z   4
loop_
 _symmetry_equiv_pos_site_id
 _symmetry_equiv_pos_as_xyz
  1  'x, y, z'
loop_
 _atom_site_type_symbol
 _atom_site_label
 _atom_site_symmetry_multiplicity
 _atom_site_fract_x
 _atom_site_fract_y
 _atom_site_fract_z
 _atom_site_occupancy
  Ti  Ti0  1  0.249998  0.413170  0.099164  1
  Ti  Ti1  1  0.749999  0.086947  0.599806  1
  Ti  Ti2  1  0.250000  0.913050  0.400511  1
  Ti  Ti3  1  0.750003  0.586995  0.900570  1
  Ti  Ti4  1  0.750001  0.563035  0.379625  1
  Ti  Ti5  1  0.249998  0.436841  0.620534  1
  Ti  Ti6  1  0.750002  0.063307  0.120416  1
  Ti  Ti7  1  0.250001  0.936732  0.879618  1
  Zn  Zn8  1  0.749998  0.254495  0.362115  1
  Zn  Zn9  1  0.249998  0.745288  0.637435  1
  Zn  Zn10  1  0.749997  0.754711  0.137694  1
  Zn  Zn11  1  0.249999  0.245235  0.862542  1
  O  O12  1  0.249993  0.917380  0.070007  1
  O  O13  1  0.749989  0.082869  0.929870  1
  O  O14  1  0.250001  0.417456  0.430052  1
  O  O15  1  0.750006  0.583072  0.570156  1
  O  O16  1  0.250001  0.036064  0.718797  1
  O  O17  1  0.750002  0.963830  0.281385  1
  O  O18  1  0.249999  0.536181  0.781380  1
  O  O19  1  0.750000  0.463927  0.218441  1
  O  O20  1  0.250000  0.615458  0.032124  1
  O  O21  1  0.750002  0.384707  0.967582  1
  O  O22  1  0.249998  0.114946  0.468531  1
  O  O23  1  0.749998  0.884733  0.532139  1
  O  O24  1  0.749998  0.794949  0.862107  1
  O  O25  1  0.250005  0.204886  0.137283  1
  O  O26  1  0.250001  0.704577  0.362395  1
  O  O27  1  0.750001  0.295160  0.637720  1
