# generated using pymatgen
data_W2O3
_symmetry_space_group_name_H-M   'P 1'
_cell_length_a   3.43112866
_cell_length_b   5.24728760
_cell_length_c   15.79830194
_cell_angle_alpha   90.00000000
_cell_angle_beta   90.00000000
_cell_angle_gamma   109.08334286
_symmetry_Int_Tables_number   1
_chemical_formula_structural   W2O3
_chemical_formula_sum   'W8 O12'
_cell_volume   268.80312378
_cell_formula_units_Z   4
loop_
 _symmetry_equiv_pos_site_id
 _symmetry_equiv_pos_as_xyz
  1  'x, y, z'
loop_
 _atom_site_type_symbol
 _atom_site_label
 _atom_site_symmetry_multiplicity
 _atom_site_fract_x
 _atom_site_fract_y
 _atom_site_fract_z
 _atom_site_occupancy
  W  W0  1  0.836466  0.672934  0.034724  1
  W  W1  1  0.163532  0.327065  0.965276  1
  W  W2  1  0.836466  0.672934  0.465276  1
  W  W3  1  0.163532  0.327065  0.534724  1
  W  W4  1  0.404067  0.808132  0.631516  1
  W  W5  1  0.595933  0.191868  0.368485  1
  W  W6  1  0.595933  0.191868  0.131515  1
  W  W7  1  0.404067  0.808132  0.868484  1
  O  O8  1  0.499999  0.000000  0.500000  1
  O  O9  1  0.499999  -0.000000  0.000000  1
  O  O10  1  0.028039  0.056078  0.864873  1
  O  O11  1  0.971961  0.943922  0.135128  1
  O  O12  1  0.971961  0.943922  0.364872  1
  O  O13  1  0.028039  0.056078  0.635128  1
  O  O14  1  0.760226  0.520453  0.900534  1
  O  O15  1  0.239773  0.479548  0.099466  1
  O  O16  1  0.239773  0.479548  0.400534  1
  O  O17  1  0.760226  0.520453  0.599466  1
  O  O18  1  0.344894  0.689788  0.750000  1
  O  O19  1  0.655103  0.310211  0.250000  1
