# generated using pymatgen
data_Sr2YAlCr2O7
_symmetry_space_group_name_H-M   'P 1'
_cell_length_a   12.00858450
_cell_length_b   12.00858450
_cell_length_c   12.00858450
_cell_angle_alpha   38.99232101
_cell_angle_beta   152.28968161
_cell_angle_gamma   153.11556436
_symmetry_Int_Tables_number   1
_chemical_formula_structural   Sr2YAlCr2O7
_chemical_formula_sum   'Sr4 Y2 Al2 Cr4 O14'
_cell_volume   363.49391081
_cell_formula_units_Z   2
loop_
 _symmetry_equiv_pos_site_id
 _symmetry_equiv_pos_as_xyz
  1  'x, y, z'
loop_
 _atom_site_type_symbol
 _atom_site_label
 _atom_site_symmetry_multiplicity
 _atom_site_fract_x
 _atom_site_fract_y
 _atom_site_fract_z
 _atom_site_occupancy
  Sr  Sr0  1  0.034065  0.853550  0.868507  1
  Sr  Sr1  1  0.985045  0.165559  0.131493  1
  Sr  Sr2  1  0.034065  0.665559  0.680514  1
  Sr  Sr3  1  0.985045  0.353550  0.319486  1
  Y  Y4  1  0.009745  0.509745  0.500000  1
  Y  Y5  1  0.009745  0.009745  -0.000000  1
  Al  Al6  1  0.569104  0.744455  0.324649  1
  Al  Al7  1  0.419806  0.244455  0.675351  1
  Cr  Cr8  1  0.515668  0.440872  0.921235  1
  Cr  Cr9  1  0.519636  0.594432  0.078765  1
  Cr  Cr10  1  0.515668  0.094432  0.574795  1
  Cr  Cr11  1  0.519636  0.940872  0.425205  1
  O  O12  1  0.015871  0.931085  0.584787  1
  O  O13  1  0.346298  0.431085  0.415213  1
  O  O14  1  0.445664  0.167307  0.150789  1
  O  O15  1  0.016520  0.294876  0.849211  1
  O  O16  1  0.445664  0.794876  0.778357  1
  O  O17  1  0.016520  0.667307  0.221643  1
  O  O18  1  0.601807  0.740869  0.722045  1
  O  O19  1  0.018826  0.879762  0.277955  1
  O  O20  1  0.601807  0.379762  0.360938  1
  O  O21  1  0.018826  0.240869  0.639062  1
  O  O22  1  0.486825  0.867030  0.256370  1
  O  O23  1  0.610661  0.230453  0.743630  1
  O  O24  1  0.486825  0.730453  0.119794  1
  O  O25  1  0.610661  0.367030  0.880206  1
