# generated using pymatgen
data_CaMnO2
_symmetry_space_group_name_H-M   'P 1'
_cell_length_a   3.21896125
_cell_length_b   8.75598851
_cell_length_c   9.02256603
_cell_angle_alpha   94.67795945
_cell_angle_beta   72.01862294
_cell_angle_gamma   95.76358095
_symmetry_Int_Tables_number   1
_chemical_formula_structural   CaMnO2
_chemical_formula_sum   'Ca4 Mn4 O8'
_cell_volume   240.31538817
_cell_formula_units_Z   4
loop_
 _symmetry_equiv_pos_site_id
 _symmetry_equiv_pos_as_xyz
  1  'x, y, z'
loop_
 _atom_site_type_symbol
 _atom_site_label
 _atom_site_symmetry_multiplicity
 _atom_site_fract_x
 _atom_site_fract_y
 _atom_site_fract_z
 _atom_site_occupancy
  Ca  Ca0  1  0.364662  0.074740  0.262388  1
  Ca  Ca1  1  0.634058  0.906510  0.767073  1
  Ca  Ca2  1  0.278730  0.712089  0.093112  1
  Ca  Ca3  1  0.716647  0.268874  0.936153  1
  Mn  Mn4  1  0.474956  0.253759  0.611277  1
  Mn  Mn5  1  0.005774  0.402007  0.286508  1
  Mn  Mn6  1  0.989490  0.579121  0.742753  1
  Mn  Mn7  1  0.521356  0.727536  0.418056  1
  O  O8  1  0.890044  0.713948  0.571960  1
  O  O9  1  0.395958  0.431120  0.798943  1
  O  O10  1  0.599044  0.550085  0.230352  1
  O  O11  1  0.106517  0.267277  0.457370  1
  O  O12  1  0.181149  0.094789  0.770968  1
  O  O13  1  0.034092  0.218137  0.124014  1
  O  O14  1  0.818667  0.886564  0.258911  1
  O  O15  1  0.961279  0.762973  0.905466  1
