# generated using pymatgen
data_TiZnP2O7
_symmetry_space_group_name_H-M   'P 1'
_cell_length_a   7.04599532
_cell_length_b   8.67400195
_cell_length_c   9.11399611
_cell_angle_alpha   90.00000000
_cell_angle_beta   112.00599910
_cell_angle_gamma   90.00000000
_symmetry_Int_Tables_number   1
_chemical_formula_structural   TiZnP2O7
_chemical_formula_sum   'Ti4 Zn4 P8 O28'
_cell_volume   516.43799987
_cell_formula_units_Z   4
loop_
 _symmetry_equiv_pos_site_id
 _symmetry_equiv_pos_as_xyz
  1  'x, y, z'
loop_
 _atom_site_type_symbol
 _atom_site_label
 _atom_site_symmetry_multiplicity
 _atom_site_fract_x
 _atom_site_fract_y
 _atom_site_fract_z
 _atom_site_occupancy
  Ti  Ti0  1  0.378164  0.069027  0.598604  1
  Ti  Ti1  1  0.621836  0.930973  0.401396  1
  Ti  Ti2  1  0.121836  0.569027  0.901396  1
  Ti  Ti3  1  0.878164  0.430973  0.098604  1
  Zn  Zn4  1  0.119336  0.942755  0.816324  1
  Zn  Zn5  1  0.380664  0.442755  0.683676  1
  Zn  Zn6  1  0.619336  0.557245  0.316324  1
  Zn  Zn7  1  0.880664  0.057245  0.183676  1
  P  P8  1  0.184853  0.738300  0.247887  1
  P  P9  1  0.437822  0.222855  0.965706  1
  P  P10  1  0.684853  0.761700  0.747887  1
  P  P11  1  0.937822  0.277145  0.465706  1
  P  P12  1  0.315147  0.238300  0.252113  1
  P  P13  1  0.062178  0.722855  0.534294  1
  P  P14  1  0.562178  0.777145  0.034294  1
  P  P15  1  0.815147  0.261700  0.752113  1
  O  O16  1  0.351342  0.175165  0.098214  1
  O  O17  1  0.581014  0.608667  0.693831  1
  O  O18  1  0.081014  0.891333  0.193831  1
  O  O19  1  0.348308  0.381642  0.898062  1
  O  O20  1  0.648658  0.824835  0.901786  1
  O  O21  1  0.399252  0.107980  0.373448  1
  O  O22  1  0.651692  0.618356  0.101938  1
  O  O23  1  0.360938  0.091906  0.843136  1
  O  O24  1  0.173526  0.271568  0.546228  1
  O  O25  1  0.600748  0.892020  0.626552  1
  O  O26  1  0.899252  0.392020  0.873448  1
  O  O27  1  0.920882  0.757435  0.803302  1
  O  O28  1  0.579118  0.257435  0.696698  1
  O  O29  1  0.851342  0.324835  0.598214  1
  O  O30  1  0.100748  0.607980  0.126552  1
  O  O31  1  0.918986  0.108667  0.806169  1
  O  O32  1  0.079118  0.242565  0.196698  1
  O  O33  1  0.639062  0.908094  0.156864  1
  O  O34  1  0.673526  0.228432  0.046228  1
  O  O35  1  0.326474  0.771568  0.953772  1
  O  O36  1  0.151692  0.881644  0.601938  1
  O  O37  1  0.860938  0.408094  0.343136  1
  O  O38  1  0.139062  0.591906  0.656864  1
  O  O39  1  0.418986  0.391333  0.306169  1
  O  O40  1  0.420882  0.742565  0.303302  1
  O  O41  1  0.848308  0.118357  0.398062  1
  O  O42  1  0.826474  0.728432  0.453772  1
  O  O43  1  0.148658  0.675165  0.401786  1
