# generated using pymatgen
data_ZnBi3O7
_symmetry_space_group_name_H-M   'P 1'
_cell_length_a   5.69250154
_cell_length_b   10.88529497
_cell_length_c   11.07735647
_cell_angle_alpha   90.00000000
_cell_angle_beta   90.00000000
_cell_angle_gamma   90.00000000
_symmetry_Int_Tables_number   1
_chemical_formula_structural   ZnBi3O7
_chemical_formula_sum   'Zn4 Bi12 O28'
_cell_volume   686.40350168
_cell_formula_units_Z   4
loop_
 _symmetry_equiv_pos_site_id
 _symmetry_equiv_pos_as_xyz
  1  'x, y, z'
loop_
 _atom_site_type_symbol
 _atom_site_label
 _atom_site_symmetry_multiplicity
 _atom_site_fract_x
 _atom_site_fract_y
 _atom_site_fract_z
 _atom_site_occupancy
  Zn  Zn0  1  0.691768  0.750000  0.916590  1
  Zn  Zn1  1  0.191768  0.250000  0.583410  1
  Zn  Zn2  1  0.308232  0.250000  0.083410  1
  Zn  Zn3  1  0.808232  0.750000  0.416590  1
  Bi  Bi4  1  0.329799  0.984883  0.364746  1
  Bi  Bi5  1  0.829799  0.015117  0.135254  1
  Bi  Bi6  1  0.670201  0.484883  0.635254  1
  Bi  Bi7  1  0.170201  0.515117  0.864746  1
  Bi  Bi8  1  0.282404  0.750000  0.144594  1
  Bi  Bi9  1  0.782404  0.250000  0.355406  1
  Bi  Bi10  1  0.717596  0.250000  0.855406  1
  Bi  Bi11  1  0.217596  0.750000  0.644594  1
  Bi  Bi12  1  0.829799  0.484883  0.135254  1
  Bi  Bi13  1  0.329799  0.515117  0.364746  1
  Bi  Bi14  1  0.170201  0.984883  0.864746  1
  Bi  Bi15  1  0.670201  0.015117  0.635254  1
  O  O16  1  0.957602  0.124060  0.772438  1
  O  O17  1  0.457602  0.875940  0.727562  1
  O  O18  1  0.042398  0.624060  0.227562  1
  O  O19  1  0.542398  0.375940  0.272438  1
  O  O20  1  0.042398  0.875940  0.227562  1
  O  O21  1  0.542398  0.124060  0.272438  1
  O  O22  1  0.957602  0.375940  0.772438  1
  O  O23  1  0.457602  0.624060  0.727562  1
  O  O24  1  0.480675  0.114104  0.795098  1
  O  O25  1  0.980675  0.885896  0.704902  1
  O  O26  1  0.519325  0.614104  0.204902  1
  O  O27  1  0.019325  0.385896  0.295098  1
  O  O28  1  0.519325  0.885896  0.204902  1
  O  O29  1  0.019325  0.114104  0.295098  1
  O  O30  1  0.480675  0.385896  0.795098  1
  O  O31  1  0.980675  0.614104  0.704902  1
  O  O32  1  0.152805  0.750000  0.459308  1
  O  O33  1  0.652805  0.250000  0.040692  1
  O  O34  1  0.847195  0.250000  0.540692  1
  O  O35  1  0.347195  0.750000  0.959308  1
  O  O36  1  0.142578  0.400886  0.036880  1
  O  O37  1  0.642578  0.599114  0.463120  1
  O  O38  1  0.857422  0.900886  0.963120  1
  O  O39  1  0.357422  0.099114  0.536880  1
  O  O40  1  0.857422  0.599114  0.963120  1
  O  O41  1  0.357422  0.400886  0.536880  1
  O  O42  1  0.142578  0.099114  0.036880  1
  O  O43  1  0.642578  0.900886  0.463120  1
