# generated using pymatgen
data_Ba2CaCu3F14
_symmetry_space_group_name_H-M   'P 1'
_cell_length_a   5.40272299
_cell_length_b   7.41428573
_cell_length_c   14.89421314
_cell_angle_alpha   91.55899655
_cell_angle_beta   90.12725734
_cell_angle_gamma   111.14000303
_symmetry_Int_Tables_number   1
_chemical_formula_structural   Ba2CaCu3F14
_chemical_formula_sum   'Ba4 Ca2 Cu6 F28'
_cell_volume   556.21861016
_cell_formula_units_Z   2
loop_
 _symmetry_equiv_pos_site_id
 _symmetry_equiv_pos_as_xyz
  1  'x, y, z'
loop_
 _atom_site_type_symbol
 _atom_site_label
 _atom_site_symmetry_multiplicity
 _atom_site_fract_x
 _atom_site_fract_y
 _atom_site_fract_z
 _atom_site_occupancy
  Ba  Ba0  1  0.129215  0.385048  0.622145  1
  Ba  Ba1  1  0.258212  0.386032  0.123321  1
  Ba  Ba2  1  0.870719  0.614324  0.377801  1
  Ba  Ba3  1  0.745934  0.615007  0.878644  1
  Ca  Ca4  1  0.416804  0.999186  0.749986  1
  Ca  Ca5  1  0.581446  0.996689  0.250463  1
  Cu  Cu6  1  0.097185  0.238775  0.875814  1
  Cu  Cu7  1  0.901685  0.759508  0.125147  1
  Cu  Cu8  1  0.142041  0.239800  0.375575  1
  Cu  Cu9  1  0.858480  0.759222  0.625839  1
  Cu  Cu10  1  0.502252  0.001185  0.999672  1
  Cu  Cu11  1  0.499604  0.999620  0.500633  1
  F  F12  1  0.920631  0.979390  0.345572  1
  F  F13  1  0.870812  0.263451  0.455649  1
  F  F14  1  0.127639  0.735704  0.545218  1
  F  F15  1  0.666118  0.494714  0.594751  1
  F  F16  1  0.610147  0.111316  0.614593  1
  F  F17  1  0.499646  0.888679  0.885310  1
  F  F18  1  0.395512  0.256727  0.955479  1
  F  F19  1  0.941937  0.016112  0.155684  1
  F  F20  1  0.359007  0.318724  0.778963  1
  F  F21  1  0.334658  0.503415  0.408099  1
  F  F22  1  0.825879  0.246670  0.791603  1
  F  F23  1  0.170746  0.503111  0.908445  1
  F  F24  1  0.418628  0.244369  0.292158  1
  F  F25  1  0.173618  0.751257  0.210563  1
  F  F26  1  0.504068  0.113095  0.115165  1
  F  F27  1  0.633946  0.679004  0.224783  1
  F  F28  1  0.143448  0.837104  0.021483  1
  F  F29  1  0.079340  0.020202  0.655792  1
  F  F30  1  0.869337  0.168914  0.982288  1
  F  F31  1  0.692101  0.832496  0.521982  1
  F  F32  1  0.603311  0.739915  0.043902  1
  F  F33  1  0.583360  0.753820  0.710060  1
  F  F34  1  0.957913  0.317557  0.276981  1
  F  F35  1  0.304620  0.165530  0.480127  1
  F  F36  1  0.389540  0.888481  0.386740  1
  F  F37  1  0.057545  0.979033  0.844630  1
  F  F38  1  0.045920  0.681358  0.723860  1
  F  F39  1  0.832255  0.499862  0.092630  1
