# generated using pymatgen
data_TiZn(GeO3)2
_symmetry_space_group_name_H-M   'P 1'
_cell_length_a   5.05527592
_cell_length_b   6.94537210
_cell_length_c   6.94537212
_cell_angle_alpha   79.32597862
_cell_angle_beta   79.96099258
_cell_angle_gamma   79.96098403
_symmetry_Int_Tables_number   1
_chemical_formula_structural   TiZn(GeO3)2
_chemical_formula_sum   'Ti2 Zn2 Ge4 O12'
_cell_volume   233.41314265
_cell_formula_units_Z   2
loop_
 _symmetry_equiv_pos_site_id
 _symmetry_equiv_pos_as_xyz
  1  'x, y, z'
loop_
 _atom_site_type_symbol
 _atom_site_label
 _atom_site_symmetry_multiplicity
 _atom_site_fract_x
 _atom_site_fract_y
 _atom_site_fract_z
 _atom_site_occupancy
  Ti  Ti0  1  0.750000  0.898458  0.101542  1
  Ti  Ti1  1  0.250000  0.101542  0.898458  1
  Zn  Zn2  1  0.750000  0.340567  0.659433  1
  Zn  Zn3  1  0.250000  0.659433  0.340567  1
  Ge  Ge4  1  0.870756  0.412863  0.161785  1
  Ge  Ge5  1  0.629244  0.838215  0.587137  1
  Ge  Ge6  1  0.129244  0.587137  0.838215  1
  Ge  Ge7  1  0.370756  0.161785  0.412863  1
  O  O8  1  0.655046  0.308354  0.397458  1
  O  O9  1  0.844954  0.602542  0.691646  1
  O  O10  1  0.344954  0.691646  0.602542  1
  O  O11  1  0.155046  0.397458  0.308354  1
  O  O12  1  0.112917  0.156284  0.653745  1
  O  O13  1  0.387083  0.346255  0.843716  1
  O  O14  1  0.887083  0.843716  0.346255  1
  O  O15  1  0.612917  0.653745  0.156284  1
  O  O16  1  0.898624  0.182174  0.043781  1
  O  O17  1  0.601376  0.956219  0.817826  1
  O  O18  1  0.101376  0.817826  0.956219  1
  O  O19  1  0.398624  0.043781  0.182174  1
