# generated using pymatgen
data_CaCu2(TeO4)2
_symmetry_space_group_name_H-M   'P 1'
_cell_length_a   6.72893517
_cell_length_b   8.80362733
_cell_length_c   13.20288110
_cell_angle_alpha   90.00000000
_cell_angle_beta   91.25958911
_cell_angle_gamma   90.00000000
_symmetry_Int_Tables_number   1
_chemical_formula_structural   CaCu2(TeO4)2
_chemical_formula_sum   'Ca4 Cu8 Te8 O32'
_cell_volume   781.93697870
_cell_formula_units_Z   4
loop_
 _symmetry_equiv_pos_site_id
 _symmetry_equiv_pos_as_xyz
  1  'x, y, z'
loop_
 _atom_site_type_symbol
 _atom_site_label
 _atom_site_symmetry_multiplicity
 _atom_site_fract_x
 _atom_site_fract_y
 _atom_site_fract_z
 _atom_site_occupancy
  Ca  Ca0  1  0.126721  0.158749  0.044899  1
  Ca  Ca1  1  0.873279  0.841251  0.955101  1
  Ca  Ca2  1  0.873279  0.658749  0.455101  1
  Ca  Ca3  1  0.126721  0.341251  0.544899  1
  Cu  Cu4  1  0.727292  0.193092  0.883390  1
  Cu  Cu5  1  0.396403  0.053509  0.629780  1
  Cu  Cu6  1  0.603597  0.946491  0.370220  1
  Cu  Cu7  1  0.272708  0.806908  0.116610  1
  Cu  Cu8  1  0.727292  0.306908  0.383390  1
  Cu  Cu9  1  0.396403  0.446491  0.129780  1
  Cu  Cu10  1  0.272708  0.693092  0.616610  1
  Cu  Cu11  1  0.603597  0.553509  0.870220  1
  Te  Te12  1  0.087464  0.455784  0.841929  1
  Te  Te13  1  0.087464  0.044216  0.341929  1
  Te  Te14  1  0.646772  0.107508  0.141891  1
  Te  Te15  1  0.912536  0.955784  0.658071  1
  Te  Te16  1  0.353228  0.892492  0.858109  1
  Te  Te17  1  0.353228  0.607508  0.358109  1
  Te  Te18  1  0.646772  0.392492  0.641891  1
  Te  Te19  1  0.912536  0.544216  0.158071  1
  O  O20  1  0.014348  0.236864  0.389479  1
  O  O21  1  0.671648  0.014841  0.597218  1
  O  O22  1  0.210022  0.586535  0.492965  1
  O  O23  1  0.789978  0.086535  0.007035  1
  O  O24  1  0.014348  0.263136  0.889479  1
  O  O25  1  0.985652  0.763136  0.610521  1
  O  O26  1  0.101218  0.094318  0.610346  1
  O  O27  1  0.523200  0.916449  0.141664  1
  O  O28  1  0.523200  0.583551  0.641664  1
  O  O29  1  0.344425  0.867438  0.695758  1
  O  O30  1  0.655575  0.367438  0.804242  1
  O  O31  1  0.476800  0.083551  0.858336  1
  O  O32  1  0.898782  0.905682  0.389654  1
  O  O33  1  0.905156  0.533052  0.297268  1
  O  O34  1  0.430121  0.266666  0.598382  1
  O  O35  1  0.430121  0.233334  0.098382  1
  O  O36  1  0.094844  0.033052  0.202732  1
  O  O37  1  0.476800  0.416449  0.358336  1
  O  O38  1  0.094844  0.466948  0.702732  1
  O  O39  1  0.789978  0.413465  0.507035  1
  O  O40  1  0.671648  0.485159  0.097218  1
  O  O41  1  0.655575  0.132562  0.304242  1
  O  O42  1  0.985652  0.736864  0.110521  1
  O  O43  1  0.101218  0.405682  0.110346  1
  O  O44  1  0.210022  0.913465  0.992965  1
  O  O45  1  0.569878  0.766666  0.901618  1
  O  O46  1  0.328352  0.985159  0.402782  1
  O  O47  1  0.328352  0.514841  0.902782  1
  O  O48  1  0.898782  0.594318  0.889654  1
  O  O49  1  0.569878  0.733334  0.401618  1
  O  O50  1  0.344425  0.632562  0.195758  1
  O  O51  1  0.905156  0.966948  0.797268  1
