# generated using pymatgen
data_AlCr(WO4)2
_symmetry_space_group_name_H-M   'P 1'
_cell_length_a   5.11817116
_cell_length_b   5.53498431
_cell_length_c   9.16769510
_cell_angle_alpha   90.14727203
_cell_angle_beta   90.36739273
_cell_angle_gamma   90.77588778
_symmetry_Int_Tables_number   1
_chemical_formula_structural   AlCr(WO4)2
_chemical_formula_sum   'Al2 Cr2 W4 O16'
_cell_volume   259.68153920
_cell_formula_units_Z   2
loop_
 _symmetry_equiv_pos_site_id
 _symmetry_equiv_pos_as_xyz
  1  'x, y, z'
loop_
 _atom_site_type_symbol
 _atom_site_label
 _atom_site_symmetry_multiplicity
 _atom_site_fract_x
 _atom_site_fract_y
 _atom_site_fract_z
 _atom_site_occupancy
  Al  Al0  1  0.247535  0.648949  0.249291  1
  Al  Al1  1  0.752464  0.351050  0.750709  1
  Cr  Cr2  1  0.750664  0.359005  0.250688  1
  Cr  Cr3  1  0.249336  0.640994  0.749312  1
  W  W4  1  0.252001  0.165122  0.500024  1
  W  W5  1  0.253097  0.165006  0.998571  1
  W  W6  1  0.747999  0.834878  0.499976  1
  W  W7  1  0.746903  0.834994  0.001429  1
  O  O8  1  0.407232  0.382895  0.136714  1
  O  O9  1  0.090878  0.386384  0.361168  1
  O  O10  1  0.592768  0.617104  0.863286  1
  O  O11  1  0.909121  0.613615  0.638832  1
  O  O12  1  0.418814  0.880716  0.614557  1
  O  O13  1  0.089402  0.884227  0.886815  1
  O  O14  1  0.581186  0.119284  0.385443  1
  O  O15  1  0.910598  0.115773  0.113185  1
  O  O16  1  0.932128  0.620540  0.138995  1
  O  O17  1  0.571404  0.627090  0.360458  1
  O  O18  1  0.067872  0.379461  0.861005  1
  O  O19  1  0.428596  0.372911  0.639542  1
  O  O20  1  0.415037  0.874538  0.117825  1
  O  O21  1  0.584963  0.125463  0.882175  1
  O  O22  1  0.091776  0.876367  0.384662  1
  O  O23  1  0.908224  0.123634  0.615338  1
