# generated using pymatgen
data_MgMn4O8
_symmetry_space_group_name_H-M   'P 1'
_cell_length_a   6.03658957
_cell_length_b   6.03658943
_cell_length_c   6.03659015
_cell_angle_alpha   59.30575981
_cell_angle_beta   59.30575527
_cell_angle_gamma   59.30576049
_symmetry_Int_Tables_number   1
_chemical_formula_structural   MgMn4O8
_chemical_formula_sum   'Mg1 Mn4 O8'
_cell_volume   153.08762265
_cell_formula_units_Z   1
loop_
 _symmetry_equiv_pos_site_id
 _symmetry_equiv_pos_as_xyz
  1  'x, y, z'
loop_
 _atom_site_type_symbol
 _atom_site_label
 _atom_site_symmetry_multiplicity
 _atom_site_fract_x
 _atom_site_fract_y
 _atom_site_fract_z
 _atom_site_occupancy
  Mg  Mg0  1  0.500000  0.500001  0.499999  1
  Mn  Mn1  1  0.500001  0.999999  0.500001  1
  Mn  Mn2  1  0.999999  0.500000  0.500001  1
  Mn  Mn3  1  0.500000  0.500000  0.000000  1
  Mn  Mn4  1  0.000000  0.000000  0.000000  1
  O  O5  1  0.747036  0.296577  0.747036  1
  O  O6  1  0.252963  0.252964  0.703423  1
  O  O7  1  0.252963  0.703424  0.252963  1
  O  O8  1  0.703422  0.252964  0.252964  1
  O  O9  1  0.268172  0.268173  0.268172  1
  O  O10  1  0.731828  0.731828  0.731828  1
  O  O11  1  0.296578  0.747037  0.747036  1
  O  O12  1  0.747037  0.747037  0.296577  1
