# generated using pymatgen
data_Ca2Nb2FeO8
_symmetry_space_group_name_H-M   'P 1'
_cell_length_a   5.53394366
_cell_length_b   6.34258742
_cell_length_c   10.08608334
_cell_angle_alpha   108.62859022
_cell_angle_beta   91.30116959
_cell_angle_gamma   89.82425456
_symmetry_Int_Tables_number   1
_chemical_formula_structural   Ca2Nb2FeO8
_chemical_formula_sum   'Ca4 Nb4 Fe2 O16'
_cell_volume   335.37967999
_cell_formula_units_Z   2
loop_
 _symmetry_equiv_pos_site_id
 _symmetry_equiv_pos_as_xyz
  1  'x, y, z'
loop_
 _atom_site_type_symbol
 _atom_site_label
 _atom_site_symmetry_multiplicity
 _atom_site_fract_x
 _atom_site_fract_y
 _atom_site_fract_z
 _atom_site_occupancy
  Ca  Ca0  1  0.757633  0.474697  0.582140  1
  Ca  Ca1  1  0.743957  0.891483  0.417134  1
  Ca  Ca2  1  0.244284  0.526358  0.417816  1
  Ca  Ca3  1  0.257265  0.109481  0.582351  1
  Nb  Nb4  1  0.756427  0.264244  0.223946  1
  Nb  Nb5  1  0.742807  0.043454  0.775779  1
  Nb  Nb6  1  0.244791  0.737998  0.775869  1
  Nb  Nb7  1  0.257263  0.955885  0.223528  1
  Fe  Fe8  1  0.753833  0.641637  0.998166  1
  Fe  Fe9  1  0.249736  0.359750  0.000914  1
  O  O10  1  0.092210  0.194107  0.141573  1
  O  O11  1  0.406834  0.061968  0.858493  1
  O  O12  1  0.909785  0.804744  0.858676  1
  O  O13  1  0.592897  0.942100  0.142438  1
  O  O14  1  0.591570  0.410583  0.114946  1
  O  O15  1  0.906965  0.301420  0.886863  1
  O  O16  1  0.413186  0.593342  0.885385  1
  O  O17  1  0.096697  0.697469  0.111587  1
  O  O18  1  0.506312  0.243738  0.366062  1
  O  O19  1  0.994767  0.881431  0.634608  1
  O  O20  1  0.346845  0.832810  0.369635  1
  O  O21  1  0.155158  0.465785  0.629542  1
  O  O22  1  0.654073  0.168096  0.629994  1
  O  O23  1  0.846667  0.535166  0.370372  1
  O  O24  1  0.007182  0.120024  0.366225  1
  O  O25  1  0.494893  0.758140  0.634188  1
