# generated using pymatgen
data_MgCr2O4
_symmetry_space_group_name_H-M   'P 1'
_cell_length_a   5.93288273
_cell_length_b   5.93288209
_cell_length_c   6.00743358
_cell_angle_alpha   59.58344836
_cell_angle_beta   59.58345197
_cell_angle_gamma   63.33353402
_symmetry_Int_Tables_number   1
_chemical_formula_structural   MgCr2O4
_chemical_formula_sum   'Mg2 Cr4 O8'
_cell_volume   151.89715934
_cell_formula_units_Z   2
loop_
 _symmetry_equiv_pos_site_id
 _symmetry_equiv_pos_as_xyz
  1  'x, y, z'
loop_
 _atom_site_type_symbol
 _atom_site_label
 _atom_site_symmetry_multiplicity
 _atom_site_fract_x
 _atom_site_fract_y
 _atom_site_fract_z
 _atom_site_occupancy
  Mg  Mg0  1  0.125000  0.625000  0.625000  1
  Mg  Mg1  1  0.625000  0.125000  0.625000  1
  Cr  Cr2  1  0.000510  0.000510  0.999490  1
  Cr  Cr3  1  0.249490  0.249490  0.250510  1
  Cr  Cr4  1  0.625000  0.625000  0.125000  1
  Cr  Cr5  1  0.625000  0.625000  0.625000  1
  O  O6  1  0.376024  0.376024  0.390658  1
  O  O7  1  0.411288  0.850590  0.369061  1
  O  O8  1  0.376024  0.376024  0.857294  1
  O  O9  1  0.850590  0.411288  0.369061  1
  O  O10  1  0.399410  0.838712  0.880939  1
  O  O11  1  0.838712  0.399410  0.880939  1
  O  O12  1  0.873976  0.873976  0.392706  1
  O  O13  1  0.873976  0.873976  0.859342  1
