# generated using pymatgen
data_ZnFe(SiO3)2
_symmetry_space_group_name_H-M   'P 1'
_cell_length_a   5.33268568
_cell_length_b   6.80111507
_cell_length_c   6.80111532
_cell_angle_alpha   87.19396048
_cell_angle_beta   75.87397498
_cell_angle_gamma   75.87397928
_symmetry_Int_Tables_number   1
_chemical_formula_structural   ZnFe(SiO3)2
_chemical_formula_sum   'Zn2 Fe2 Si4 O12'
_cell_volume   231.95742944
_cell_formula_units_Z   2
loop_
 _symmetry_equiv_pos_site_id
 _symmetry_equiv_pos_as_xyz
  1  'x, y, z'
loop_
 _atom_site_type_symbol
 _atom_site_label
 _atom_site_symmetry_multiplicity
 _atom_site_fract_x
 _atom_site_fract_y
 _atom_site_fract_z
 _atom_site_occupancy
  Zn  Zn0  1  0.750000  0.243235  0.756765  1
  Zn  Zn1  1  0.250001  0.756765  0.243236  1
  Fe  Fe2  1  0.249999  0.101493  0.898508  1
  Fe  Fe3  1  0.749999  0.898509  0.101492  1
  Si  Si4  1  0.233787  0.218208  0.386055  1
  Si  Si5  1  0.266212  0.613945  0.781792  1
  Si  Si6  1  0.733787  0.386055  0.218208  1
  Si  Si7  1  0.766213  0.781792  0.613945  1
  O  O8  1  0.482904  0.322767  0.384208  1
  O  O9  1  0.017096  0.615791  0.677234  1
  O  O10  1  0.517097  0.677234  0.615792  1
  O  O11  1  0.982903  0.384209  0.322766  1
  O  O12  1  0.122823  0.148374  0.617445  1
  O  O13  1  0.377177  0.382554  0.851625  1
  O  O14  1  0.877177  0.851626  0.382555  1
  O  O15  1  0.622822  0.617445  0.148375  1
  O  O16  1  0.842298  0.211325  0.037246  1
  O  O17  1  0.657702  0.962754  0.788674  1
  O  O18  1  0.342297  0.037246  0.211326  1
  O  O19  1  0.157703  0.788675  0.962754  1
