# generated using pymatgen
data_MgCu(GeO3)2
_symmetry_space_group_name_H-M   'P 1'
_cell_length_a   5.38266649
_cell_length_b   9.22407399
_cell_length_c   9.73803543
_cell_angle_alpha   90.00000000
_cell_angle_beta   101.22646257
_cell_angle_gamma   90.00000000
_symmetry_Int_Tables_number   1
_chemical_formula_structural   MgCu(GeO3)2
_chemical_formula_sum   'Mg4 Cu4 Ge8 O24'
_cell_volume   474.24306550
_cell_formula_units_Z   4
loop_
 _symmetry_equiv_pos_site_id
 _symmetry_equiv_pos_as_xyz
  1  'x, y, z'
loop_
 _atom_site_type_symbol
 _atom_site_label
 _atom_site_symmetry_multiplicity
 _atom_site_fract_x
 _atom_site_fract_y
 _atom_site_fract_z
 _atom_site_occupancy
  Mg  Mg0  1  0.440238  0.492370  0.246516  1
  Mg  Mg1  1  0.059762  0.992370  0.753484  1
  Mg  Mg2  1  0.559762  0.507630  0.753484  1
  Mg  Mg3  1  0.940238  0.007630  0.246516  1
  Cu  Cu4  1  0.950789  0.649243  0.241783  1
  Cu  Cu5  1  0.549211  0.149243  0.758217  1
  Cu  Cu6  1  0.049211  0.350757  0.758217  1
  Cu  Cu7  1  0.450789  0.850757  0.241783  1
  Ge  Ge8  1  0.841862  0.340396  0.058041  1
  Ge  Ge9  1  0.658138  0.840396  0.941959  1
  Ge  Ge10  1  0.158138  0.659604  0.941959  1
  Ge  Ge11  1  0.341862  0.159604  0.058041  1
  Ge  Ge12  1  0.234458  0.343341  0.464885  1
  Ge  Ge13  1  0.265542  0.843341  0.535115  1
  Ge  Ge14  1  0.765542  0.656659  0.535115  1
  Ge  Ge15  1  0.734458  0.156659  0.464885  1
  O  O16  1  0.501821  0.287074  0.391102  1
  O  O17  1  0.998179  0.787074  0.608898  1
  O  O18  1  0.498179  0.712926  0.608898  1
  O  O19  1  0.001821  0.212926  0.391102  1
  O  O20  1  0.183666  0.319741  0.111620  1
  O  O21  1  0.316334  0.819741  0.888381  1
  O  O22  1  0.816334  0.680259  0.888381  1
  O  O23  1  0.683666  0.180259  0.111620  1
  O  O24  1  0.697143  0.988110  0.385086  1
  O  O25  1  0.802857  0.488110  0.614914  1
  O  O26  1  0.302857  0.011890  0.614914  1
  O  O27  1  0.197143  0.511890  0.385086  1
  O  O28  1  0.228500  0.015997  0.141984  1
  O  O29  1  0.271500  0.515997  0.858016  1
  O  O30  1  0.771500  0.984003  0.858016  1
  O  O31  1  0.728500  0.484003  0.141984  1
  O  O32  1  0.780111  0.350280  0.872901  1
  O  O33  1  0.719889  0.850280  0.127099  1
  O  O34  1  0.219889  0.649720  0.127099  1
  O  O35  1  0.280111  0.149720  0.872901  1
  O  O36  1  0.323065  0.337736  0.650451  1
  O  O37  1  0.176935  0.837736  0.349549  1
  O  O38  1  0.676935  0.662264  0.349549  1
  O  O39  1  0.823065  0.162264  0.650451  1
