# generated using pymatgen
data_MoO2
_symmetry_space_group_name_H-M   'P 1'
_cell_length_a   3.08587441
_cell_length_b   3.08587439
_cell_length_c   10.91756295
_cell_angle_alpha   90.00000000
_cell_angle_beta   90.00000000
_cell_angle_gamma   120.00000012
_symmetry_Int_Tables_number   1
_chemical_formula_structural   MoO2
_chemical_formula_sum   'Mo2 O4'
_cell_volume   90.03530226
_cell_formula_units_Z   2
loop_
 _symmetry_equiv_pos_site_id
 _symmetry_equiv_pos_as_xyz
  1  'x, y, z'
loop_
 _atom_site_type_symbol
 _atom_site_label
 _atom_site_symmetry_multiplicity
 _atom_site_fract_x
 _atom_site_fract_y
 _atom_site_fract_z
 _atom_site_occupancy
  Mo  Mo0  1  0.666667  0.333333  0.750000  1
  Mo  Mo1  1  0.333333  0.666667  0.250000  1
  O  O2  1  0.333333  0.666667  0.412764  1
  O  O3  1  0.666667  0.333333  0.912764  1
  O  O4  1  0.333333  0.666667  0.087236  1
  O  O5  1  0.666667  0.333333  0.587236  1
