# generated using pymatgen
data_Ba2Sb2F11
_symmetry_space_group_name_H-M   'P 1'
_cell_length_a   8.06355684
_cell_length_b   8.06355674
_cell_length_c   14.82370635
_cell_angle_alpha   90.00000000
_cell_angle_beta   90.00000000
_cell_angle_gamma   119.99999645
_symmetry_Int_Tables_number   1
_chemical_formula_structural   Ba2Sb2F11
_chemical_formula_sum   'Ba6 Sb6 F33'
_cell_volume   834.71986393
_cell_formula_units_Z   3
loop_
 _symmetry_equiv_pos_site_id
 _symmetry_equiv_pos_as_xyz
  1  'x, y, z'
loop_
 _atom_site_type_symbol
 _atom_site_label
 _atom_site_symmetry_multiplicity
 _atom_site_fract_x
 _atom_site_fract_y
 _atom_site_fract_z
 _atom_site_occupancy
  Ba  Ba0  1  0.544584  0.173363  0.656642  1
  Ba  Ba1  1  0.121948  0.397340  0.804250  1
  Ba  Ba2  1  0.628779  0.455416  0.989975  1
  Ba  Ba3  1  0.602660  0.724607  0.470916  1
  Ba  Ba4  1  0.275393  0.878052  0.137583  1
  Ba  Ba5  1  0.826637  0.371221  0.323308  1
  Sb  Sb6  1  0.533849  0.939000  0.895094  1
  Sb  Sb7  1  0.846704  0.798965  0.732756  1
  Sb  Sb8  1  0.201035  0.047740  0.399422  1
  Sb  Sb9  1  0.405152  0.466151  0.228427  1
  Sb  Sb10  1  0.952260  0.153296  0.066089  1
  Sb  Sb11  1  0.061000  0.594848  0.561760  1
  F  F12  1  0.656588  0.016206  0.062589  1
  F  F13  1  0.298031  0.689912  0.943791  1
  F  F14  1  0.359619  0.343412  0.395922  1
  F  F15  1  0.120105  0.488329  0.452676  1
  F  F16  1  0.553620  0.322282  0.178857  1
  F  F17  1  0.003853  0.583950  0.194083  1
  F  F18  1  0.511671  0.631775  0.119344  1
  F  F19  1  0.416050  0.419904  0.860750  1
  F  F20  1  0.768661  0.446380  0.512190  1
  F  F21  1  0.247396  0.254505  0.073207  1
  F  F22  1  0.368225  0.879895  0.786010  1
  F  F23  1  0.983794  0.640381  0.729256  1
  F  F24  1  0.398498  0.052766  0.964168  1
  F  F25  1  0.931504  0.388707  0.019134  1
  F  F26  1  0.654268  0.601502  0.297501  1
  F  F27  1  0.310088  0.608121  0.610457  1
  F  F28  1  0.964950  0.123195  0.930111  1
  F  F29  1  0.007108  0.752604  0.406540  1
  F  F30  1  0.959800  0.067470  0.409275  1
  F  F31  1  0.947234  0.345732  0.630834  1
  F  F32  1  0.107670  0.040200  0.742609  1
  F  F33  1  0.611293  0.542796  0.685801  1
  F  F34  1  0.457204  0.068496  0.352467  1
  F  F35  1  0.158245  0.035050  0.263444  1
  F  F36  1  0.745495  0.992892  0.739874  1
  F  F37  1  0.677717  0.231339  0.845524  1
  F  F38  1  0.391879  0.701969  0.277124  1
  F  F39  1  0.816388  0.738858  0.869430  1
  F  F40  1  0.922471  0.183612  0.202763  1
  F  F41  1  0.932530  0.892330  0.075942  1
  F  F42  1  0.580096  0.996147  0.527416  1
  F  F43  1  0.876805  0.841755  0.596777  1
  F  F44  1  0.261142  0.077529  0.536096  1
