# generated using pymatgen
data_Mg3Bi2(AsO6)2
_symmetry_space_group_name_H-M   'P 1'
_cell_length_a   5.48221110
_cell_length_b   7.53455014
_cell_length_c   7.39215239
_cell_angle_alpha   115.17338462
_cell_angle_beta   90.00000000
_cell_angle_gamma   90.00000000
_symmetry_Int_Tables_number   1
_chemical_formula_structural   Mg3Bi2(AsO6)2
_chemical_formula_sum   'Mg3 Bi2 As2 O12'
_cell_volume   276.34044003
_cell_formula_units_Z   1
loop_
 _symmetry_equiv_pos_site_id
 _symmetry_equiv_pos_as_xyz
  1  'x, y, z'
loop_
 _atom_site_type_symbol
 _atom_site_label
 _atom_site_symmetry_multiplicity
 _atom_site_fract_x
 _atom_site_fract_y
 _atom_site_fract_z
 _atom_site_occupancy
  Mg  Mg0  1  0.750000  0.099849  0.277911  1
  Mg  Mg1  1  0.250000  0.903552  0.722192  1
  Mg  Mg2  1  0.750000  0.709717  0.892223  1
  Bi  Bi3  1  0.250000  0.412001  0.592923  1
  Bi  Bi4  1  0.750000  0.590933  0.403391  1
  As  As5  1  0.250000  0.806220  0.198194  1
  As  As6  1  0.750000  0.196233  0.799411  1
  O  O7  1  0.995364  0.107223  0.878664  1
  O  O8  1  0.250000  0.554257  0.089792  1
  O  O9  1  0.000948  0.672764  0.669327  1
  O  O10  1  0.250000  0.908156  0.451945  1
  O  O11  1  0.509965  0.879776  0.115807  1
  O  O12  1  0.983349  0.331234  0.345003  1
  O  O13  1  0.499052  0.672764  0.669327  1
  O  O14  1  0.750000  0.100342  0.544341  1
  O  O15  1  0.516651  0.331234  0.345003  1
  O  O16  1  0.504636  0.107223  0.878664  1
  O  O17  1  0.990035  0.879776  0.115807  1
  O  O18  1  0.750000  0.448280  0.906324  1
