# generated using pymatgen
data_MnZn2SbO6
_symmetry_space_group_name_H-M   'P 1'
_cell_length_a   5.35885720
_cell_length_b   5.32814319
_cell_length_c   7.66375501
_cell_angle_alpha   90.00000000
_cell_angle_beta   90.00000000
_cell_angle_gamma   93.85971392
_symmetry_Int_Tables_number   1
_chemical_formula_structural   MnZn2SbO6
_chemical_formula_sum   'Mn2 Zn4 Sb2 O12'
_cell_volume   218.32502750
_cell_formula_units_Z   2
loop_
 _symmetry_equiv_pos_site_id
 _symmetry_equiv_pos_as_xyz
  1  'x, y, z'
loop_
 _atom_site_type_symbol
 _atom_site_label
 _atom_site_symmetry_multiplicity
 _atom_site_fract_x
 _atom_site_fract_y
 _atom_site_fract_z
 _atom_site_occupancy
  Mn  Mn0  1  0.500000  0.000000  0.500000  1
  Mn  Mn1  1  0.500000  0.000000  0.000000  1
  Zn  Zn2  1  0.523076  0.555263  0.750000  1
  Zn  Zn3  1  0.476924  0.444737  0.250000  1
  Zn  Zn4  1  0.038319  0.014850  0.750000  1
  Zn  Zn5  1  0.961681  0.985150  0.250000  1
  Sb  Sb6  1  0.000000  0.500000  0.500000  1
  Sb  Sb7  1  0.000000  0.500000  0.000000  1
  O  O8  1  0.329074  0.678351  0.435929  1
  O  O9  1  0.157548  0.193523  0.071701  1
  O  O10  1  0.670926  0.321649  0.935929  1
  O  O11  1  0.842452  0.806477  0.571701  1
  O  O12  1  0.157548  0.193523  0.428299  1
  O  O13  1  0.842452  0.806477  0.928299  1
  O  O14  1  0.870128  0.587368  0.250000  1
  O  O15  1  0.329074  0.678351  0.064071  1
  O  O16  1  0.397308  0.920433  0.750000  1
  O  O17  1  0.670926  0.321649  0.564071  1
  O  O18  1  0.129872  0.412632  0.750000  1
  O  O19  1  0.602692  0.079567  0.250000  1
