# generated using pymatgen
data_CaMoAsO5
_symmetry_space_group_name_H-M   'P 1'
_cell_length_a   8.26134301
_cell_length_b   6.14430223
_cell_length_c   9.45534754
_cell_angle_alpha   91.14652535
_cell_angle_beta   94.93658347
_cell_angle_gamma   97.10582208
_symmetry_Int_Tables_number   1
_chemical_formula_structural   CaMoAsO5
_chemical_formula_sum   'Ca4 Mo4 As4 O20'
_cell_volume   474.27402160
_cell_formula_units_Z   4
loop_
 _symmetry_equiv_pos_site_id
 _symmetry_equiv_pos_as_xyz
  1  'x, y, z'
loop_
 _atom_site_type_symbol
 _atom_site_label
 _atom_site_symmetry_multiplicity
 _atom_site_fract_x
 _atom_site_fract_y
 _atom_site_fract_z
 _atom_site_occupancy
  Ca  Ca0  1  0.936933  0.723473  0.102063  1
  Ca  Ca1  1  0.583583  0.257590  0.584067  1
  Ca  Ca2  1  0.443754  0.746693  0.871229  1
  Ca  Ca3  1  0.095569  0.265965  0.435388  1
  Mo  Mo4  1  0.002502  0.439713  0.770586  1
  Mo  Mo5  1  0.483189  0.564290  0.238597  1
  Mo  Mo6  1  0.496289  0.041392  0.231306  1
  Mo  Mo7  1  0.024456  0.947314  0.749759  1
  As  As8  1  0.649966  0.327175  0.952277  1
  As  As9  1  0.853626  0.664779  0.448410  1
  As  As10  1  0.119509  0.206561  0.085327  1
  As  As11  1  0.334038  0.794874  0.527968  1
  O  O12  1  0.860359  0.153340  0.782925  1
  O  O13  1  0.654274  0.863298  0.271507  1
  O  O14  1  0.307691  0.275182  0.183557  1
  O  O15  1  0.178272  0.711407  0.760381  1
  O  O16  1  0.529717  0.390141  0.800185  1
  O  O17  1  0.984893  0.592347  0.322776  1
  O  O18  1  0.991989  0.105568  0.208045  1
  O  O19  1  0.498741  0.889994  0.655230  1
  O  O20  1  0.522584  0.086110  0.021346  1
  O  O21  1  0.979452  0.912852  0.537786  1
  O  O22  1  0.078784  0.438881  0.997202  1
  O  O23  1  0.406068  0.553343  0.442315  1
  O  O24  1  0.602481  0.568775  0.057250  1
  O  O25  1  0.895165  0.436045  0.568428  1
  O  O26  1  0.114914  0.985241  0.970624  1
  O  O27  1  0.386862  0.041071  0.414977  1
  O  O28  1  0.879798  0.662825  0.828998  1
  O  O29  1  0.615019  0.321671  0.309797  1
  O  O30  1  0.334658  0.775065  0.169556  1
  O  O31  1  0.154863  0.257027  0.700139  1
