# generated using pymatgen
data_Ba2Fe3O8
_symmetry_space_group_name_H-M   'P 1'
_cell_length_a   3.92151670
_cell_length_b   3.92152138
_cell_length_c   12.04235965
_cell_angle_alpha   89.99994474
_cell_angle_beta   90.00006629
_cell_angle_gamma   89.99980948
_symmetry_Int_Tables_number   1
_chemical_formula_structural   Ba2Fe3O8
_chemical_formula_sum   'Ba2 Fe3 O8'
_cell_volume   185.19115887
_cell_formula_units_Z   1
loop_
 _symmetry_equiv_pos_site_id
 _symmetry_equiv_pos_as_xyz
  1  'x, y, z'
loop_
 _atom_site_type_symbol
 _atom_site_label
 _atom_site_symmetry_multiplicity
 _atom_site_fract_x
 _atom_site_fract_y
 _atom_site_fract_z
 _atom_site_occupancy
  Ba  Ba0  1  0.500001  0.499991  0.174420  1
  Ba  Ba1  1  0.500003  0.499994  0.825754  1
  Fe  Fe2  1  0.999997  0.000005  0.338129  1
  Fe  Fe3  1  -0.000010  0.000047  0.000066  1
  Fe  Fe4  1  0.999999  0.000003  0.661866  1
  O  O5  1  0.999998  0.500006  0.350736  1
  O  O6  1  0.499997  0.000008  0.350736  1
  O  O7  1  0.500015  0.999992  0.000000  1
  O  O8  1  0.000000  -0.000000  0.173487  1
  O  O9  1  0.999998  0.500005  0.649120  1
  O  O10  1  0.499999  0.000008  0.649118  1
  O  O11  1  0.000002  -0.000003  0.826567  1
  O  O12  1  0.000002  0.499944  0.000000  1
