# generated using pymatgen
data_Mo3(AsO4)4
_symmetry_space_group_name_H-M   'P 1'
_cell_length_a   4.94292015
_cell_length_b   8.76611842
_cell_length_c   16.89436730
_cell_angle_alpha   111.90033389
_cell_angle_beta   90.00000000
_cell_angle_gamma   90.00000000
_symmetry_Int_Tables_number   1
_chemical_formula_structural   Mo3(AsO4)4
_chemical_formula_sum   'Mo6 As8 O32'
_cell_volume   679.20860622
_cell_formula_units_Z   2
loop_
 _symmetry_equiv_pos_site_id
 _symmetry_equiv_pos_as_xyz
  1  'x, y, z'
loop_
 _atom_site_type_symbol
 _atom_site_label
 _atom_site_symmetry_multiplicity
 _atom_site_fract_x
 _atom_site_fract_y
 _atom_site_fract_z
 _atom_site_occupancy
  Mo  Mo0  1  0.052113  0.333147  0.114492  1
  Mo  Mo1  1  0.947887  0.666853  0.885508  1
  Mo  Mo2  1  0.552113  0.166853  0.385508  1
  Mo  Mo3  1  0.447887  0.833147  0.614492  1
  Mo  Mo4  1  0.500000  0.500000  0.000000  1
  Mo  Mo5  1  -0.000000  0.000000  0.500000  1
  As  As6  1  0.485503  0.021873  0.834182  1
  As  As7  1  0.026616  0.287848  0.894942  1
  As  As8  1  0.526616  0.212152  0.605058  1
  As  As9  1  0.473384  0.787848  0.394942  1
  As  As10  1  0.514497  0.978127  0.165818  1
  As  As11  1  0.973384  0.712152  0.105058  1
  As  As12  1  0.014497  0.521873  0.334182  1
  As  As13  1  0.985503  0.478127  0.665818  1
  O  O14  1  0.100613  0.548407  0.773669  1
  O  O15  1  0.719099  0.205451  0.512650  1
  O  O16  1  0.258388  0.187539  0.814171  1
  O  O17  1  0.138450  0.780055  0.644778  1
  O  O18  1  0.741612  0.812461  0.185829  1
  O  O19  1  0.399387  0.048407  0.273669  1
  O  O20  1  0.758388  0.312461  0.685829  1
  O  O21  1  0.751309  0.915274  0.391274  1
  O  O22  1  0.702782  0.622629  0.387829  1
  O  O23  1  0.899387  0.451593  0.226331  1
  O  O24  1  0.361550  0.280055  0.144778  1
  O  O25  1  0.248691  0.084726  0.608726  1
  O  O26  1  0.211790  0.507359  0.921792  1
  O  O27  1  0.297218  0.377371  0.612170  1
  O  O28  1  0.869529  0.154568  0.076674  1
  O  O29  1  0.369529  0.345432  0.423326  1
  O  O30  1  0.711790  0.992641  0.578208  1
  O  O31  1  0.241612  0.687539  0.314171  1
  O  O32  1  0.202782  0.877371  0.112171  1
  O  O33  1  0.251309  0.584726  0.108726  1
  O  O34  1  0.630471  0.654568  0.576674  1
  O  O35  1  0.130471  0.845432  0.923326  1
  O  O36  1  0.280901  0.794549  0.487350  1
  O  O37  1  0.219099  0.294549  0.987350  1
  O  O38  1  0.788210  0.492641  0.078208  1
  O  O39  1  0.600613  0.951593  0.726331  1
  O  O40  1  0.861550  0.219945  0.355222  1
  O  O41  1  0.797218  0.122629  0.887830  1
  O  O42  1  0.780901  0.705451  0.012650  1
  O  O43  1  0.748691  0.415274  0.891274  1
  O  O44  1  0.288210  0.007359  0.421792  1
  O  O45  1  0.638450  0.719945  0.855222  1
