# generated using pymatgen
data_Al(CoS2)2
_symmetry_space_group_name_H-M   'P 1'
_cell_length_a   6.94366711
_cell_length_b   6.74517366
_cell_length_c   6.73749633
_cell_angle_alpha   88.29554518
_cell_angle_beta   121.09299460
_cell_angle_gamma   121.04890738
_symmetry_Int_Tables_number   1
_chemical_formula_structural   Al(CoS2)2
_chemical_formula_sum   'Al2 Co4 S8'
_cell_volume   219.13604238
_cell_formula_units_Z   2
loop_
 _symmetry_equiv_pos_site_id
 _symmetry_equiv_pos_as_xyz
  1  'x, y, z'
loop_
 _atom_site_type_symbol
 _atom_site_label
 _atom_site_symmetry_multiplicity
 _atom_site_fract_x
 _atom_site_fract_y
 _atom_site_fract_z
 _atom_site_occupancy
  Al  Al0  1  0.000003  0.000002  0.000004  1
  Al  Al1  1  0.500024  0.000015  0.000023  1
  Co  Co2  1  0.499992  0.999994  0.499996  1
  Co  Co3  1  0.500036  0.500025  0.500030  1
  Co  Co4  1  0.000005  0.499992  0.000001  1
  Co  Co5  1  0.000001  0.500001  0.500003  1
  S  S6  1  0.032147  0.745525  0.253387  1
  S  S7  1  0.485222  0.752184  0.729364  1
  S  S8  1  0.467707  0.744858  0.256565  1
  S  S9  1  0.991918  0.726738  0.749892  1
  S  S10  1  0.532297  0.255134  0.743439  1
  S  S11  1  0.514757  0.247810  0.270626  1
  S  S12  1  0.008101  0.273238  0.250118  1
  S  S13  1  0.967838  0.254450  0.746597  1
