# generated using pymatgen
data_Mn(GeO3)2
_symmetry_space_group_name_H-M   'P 1'
_cell_length_a   5.51394571
_cell_length_b   6.60915622
_cell_length_c   6.60915658
_cell_angle_alpha   83.63855778
_cell_angle_beta   76.06464567
_cell_angle_gamma   76.06464064
_symmetry_Int_Tables_number   1
_chemical_formula_structural   Mn(GeO3)2
_chemical_formula_sum   'Mn2 Ge4 O12'
_cell_volume   226.52867251
_cell_formula_units_Z   2
loop_
 _symmetry_equiv_pos_site_id
 _symmetry_equiv_pos_as_xyz
  1  'x, y, z'
loop_
 _atom_site_type_symbol
 _atom_site_label
 _atom_site_symmetry_multiplicity
 _atom_site_fract_x
 _atom_site_fract_y
 _atom_site_fract_z
 _atom_site_occupancy
  Mn  Mn0  1  0.750000  0.908918  0.091082  1
  Mn  Mn1  1  0.250000  0.091082  0.908918  1
  Ge  Ge2  1  0.770933  0.391619  0.206431  1
  Ge  Ge3  1  0.729067  0.793569  0.608381  1
  Ge  Ge4  1  0.229067  0.608381  0.793569  1
  Ge  Ge5  1  0.270933  0.206431  0.391619  1
  O  O6  1  0.503263  0.344001  0.390710  1
  O  O7  1  0.996737  0.609290  0.655999  1
  O  O8  1  0.496737  0.655999  0.609290  1
  O  O9  1  0.003263  0.390710  0.344001  1
  O  O10  1  0.199461  0.081582  0.641129  1
  O  O11  1  0.300539  0.358872  0.918418  1
  O  O12  1  0.800539  0.918418  0.358872  1
  O  O13  1  0.699461  0.641129  0.081582  1
  O  O14  1  0.877809  0.182775  0.027045  1
  O  O15  1  0.622191  0.972955  0.817225  1
  O  O16  1  0.122191  0.817225  0.972955  1
  O  O17  1  0.377809  0.027045  0.182775  1
