# generated using pymatgen
data_Nb2Zn2WO8
_symmetry_space_group_name_H-M   'P 1'
_cell_length_a   5.38964458
_cell_length_b   5.91400045
_cell_length_c   10.20287449
_cell_angle_alpha   104.09393545
_cell_angle_beta   90.71870118
_cell_angle_gamma   91.72095518
_symmetry_Int_Tables_number   1
_chemical_formula_structural   Nb2Zn2WO8
_chemical_formula_sum   'Nb4 Zn4 W2 O16'
_cell_volume   315.21214713
_cell_formula_units_Z   2
loop_
 _symmetry_equiv_pos_site_id
 _symmetry_equiv_pos_as_xyz
  1  'x, y, z'
loop_
 _atom_site_type_symbol
 _atom_site_label
 _atom_site_symmetry_multiplicity
 _atom_site_fract_x
 _atom_site_fract_y
 _atom_site_fract_z
 _atom_site_occupancy
  Nb  Nb0  1  0.707671  0.240589  0.243489  1
  Nb  Nb1  1  0.728734  0.018453  0.768016  1
  Nb  Nb2  1  0.288554  0.759696  0.756093  1
  Nb  Nb3  1  0.267462  0.981837  0.231590  1
  Zn  Zn4  1  0.781554  0.433541  0.565022  1
  Zn  Zn5  1  0.725668  0.857221  0.440972  1
  Zn  Zn6  1  0.214701  0.566771  0.434587  1
  Zn  Zn7  1  0.270629  0.143063  0.558680  1
  W  W8  1  0.754829  0.638765  0.994421  1
  W  W9  1  0.241284  0.361557  0.005174  1
  O  O10  1  0.087011  0.191446  0.137182  1
  O  O11  1  0.406859  0.089712  0.877046  1
  O  O12  1  0.909148  0.808847  0.862399  1
  O  O13  1  0.589229  0.910702  0.122440  1
  O  O14  1  0.594223  0.429639  0.114680  1
  O  O15  1  0.898053  0.326540  0.895090  1
  O  O16  1  0.401871  0.570729  0.884930  1
  O  O17  1  0.098047  0.673761  0.104510  1
  O  O18  1  0.416332  0.290657  0.368963  1
  O  O19  1  0.079468  0.937822  0.653108  1
  O  O20  1  0.357510  0.847445  0.388458  1
  O  O21  1  0.140433  0.459039  0.611951  1
  O  O22  1  0.638753  0.152854  0.611117  1
  O  O23  1  0.855825  0.541198  0.387658  1
  O  O24  1  0.916685  0.062339  0.346400  1
  O  O25  1  0.579877  0.709659  0.630587  1
