# generated using pymatgen
data_CaWF5
_symmetry_space_group_name_H-M   'P 1'
_cell_length_a   5.84927418
_cell_length_b   5.85985520
_cell_length_c   8.14779832
_cell_angle_alpha   96.61044245
_cell_angle_beta   112.67592952
_cell_angle_gamma   107.53631125
_symmetry_Int_Tables_number   1
_chemical_formula_structural   CaWF5
_chemical_formula_sum   'Ca2 W2 F10'
_cell_volume   237.06835497
_cell_formula_units_Z   2
loop_
 _symmetry_equiv_pos_site_id
 _symmetry_equiv_pos_as_xyz
  1  'x, y, z'
loop_
 _atom_site_type_symbol
 _atom_site_label
 _atom_site_symmetry_multiplicity
 _atom_site_fract_x
 _atom_site_fract_y
 _atom_site_fract_z
 _atom_site_occupancy
  Ca  Ca0  1  0.286205  0.534245  0.753032  1
  Ca  Ca1  1  0.719796  0.466219  0.252236  1
  W  W2  1  0.000539  0.999288  0.001133  1
  W  W3  1  0.501116  0.002383  0.501572  1
  F  F4  1  0.360326  0.109903  0.251271  1
  F  F5  1  0.641481  0.893385  0.751885  1
  F  F6  1  0.590665  0.733263  0.373421  1
  F  F7  1  0.858776  0.220654  0.123994  1
  F  F8  1  0.738957  0.684656  0.033828  1
  F  F9  1  0.154871  0.708198  0.470257  1
  F  F10  1  0.263095  0.308323  0.966484  1
  F  F11  1  0.846502  0.299655  0.535175  1
  F  F12  1  0.146336  0.782036  0.878294  1
  F  F13  1  0.405834  0.270083  0.623499  1
