# generated using pymatgen
data_Zn3Fe2(SiO4)3
_symmetry_space_group_name_H-M   'P 1'
_cell_length_a   10.26927059
_cell_length_b   10.26927086
_cell_length_c   10.26927054
_cell_angle_alpha   109.47122177
_cell_angle_beta   109.47122231
_cell_angle_gamma   109.47121847
_symmetry_Int_Tables_number   1
_chemical_formula_structural   Zn3Fe2(SiO4)3
_chemical_formula_sum   'Zn12 Fe8 Si12 O48'
_cell_volume   833.67524806
_cell_formula_units_Z   4
loop_
 _symmetry_equiv_pos_site_id
 _symmetry_equiv_pos_as_xyz
  1  'x, y, z'
loop_
 _atom_site_type_symbol
 _atom_site_label
 _atom_site_symmetry_multiplicity
 _atom_site_fract_x
 _atom_site_fract_y
 _atom_site_fract_z
 _atom_site_occupancy
  Zn  Zn0  1  0.375000  0.750000  0.125000  1
  Zn  Zn1  1  0.125000  0.250000  0.375000  1
  Zn  Zn2  1  0.375000  0.125000  0.250000  1
  Zn  Zn3  1  0.125000  0.375000  0.750000  1
  Zn  Zn4  1  0.875000  0.750000  0.625000  1
  Zn  Zn5  1  0.750000  0.125000  0.375000  1
  Zn  Zn6  1  0.750000  0.625000  0.875000  1
  Zn  Zn7  1  0.625000  0.250000  0.875000  1
  Zn  Zn8  1  0.250000  0.875000  0.625000  1
  Zn  Zn9  1  0.875000  0.625000  0.250000  1
  Zn  Zn10  1  0.625000  0.875000  0.750000  1
  Zn  Zn11  1  0.250000  0.375000  0.125000  1
  Fe  Fe12  1  0.000000  0.000000  0.000000  1
  Fe  Fe13  1  0.000000  0.500000  0.000000  1
  Fe  Fe14  1  0.000000  0.000000  0.500000  1
  Fe  Fe15  1  0.000000  0.500000  0.500000  1
  Fe  Fe16  1  0.500000  0.000000  0.500000  1
  Fe  Fe17  1  0.500000  0.500000  0.000000  1
  Fe  Fe18  1  0.500000  0.500000  0.500000  1
  Fe  Fe19  1  0.500000  0.000000  0.000000  1
  Si  Si20  1  0.250000  0.125000  0.875000  1
  Si  Si21  1  0.750000  0.875000  0.125000  1
  Si  Si22  1  0.375000  0.250000  0.625000  1
  Si  Si23  1  0.625000  0.375000  0.250000  1
  Si  Si24  1  0.125000  0.750000  0.875000  1
  Si  Si25  1  0.875000  0.125000  0.750000  1
  Si  Si26  1  0.750000  0.375000  0.625000  1
  Si  Si27  1  0.375000  0.625000  0.750000  1
  Si  Si28  1  0.125000  0.875000  0.250000  1
  Si  Si29  1  0.875000  0.250000  0.125000  1
  Si  Si30  1  0.625000  0.750000  0.375000  1
  Si  Si31  1  0.250000  0.625000  0.375000  1
  O  O32  1  0.289632  0.481272  0.376245  1
  O  O33  1  0.018728  0.308360  0.894973  1
  O  O34  1  0.123755  0.605027  0.913387  1
  O  O35  1  0.210368  0.586613  0.191640  1
  O  O36  1  0.210368  0.123755  0.018728  1
  O  O37  1  0.586613  0.191640  0.210368  1
  O  O38  1  0.605027  0.191640  0.481272  1
  O  O39  1  0.191640  0.210368  0.586613  1
  O  O40  1  0.894973  0.376245  0.586613  1
  O  O41  1  0.308360  0.913387  0.289632  1
  O  O42  1  0.913387  0.289632  0.308360  1
  O  O43  1  0.018728  0.210368  0.123755  1
  O  O44  1  0.191640  0.481272  0.605027  1
  O  O45  1  0.586613  0.894973  0.376245  1
  O  O46  1  0.123755  0.018728  0.210368  1
  O  O47  1  0.481272  0.605027  0.191640  1
  O  O48  1  0.376245  0.586613  0.894973  1
  O  O49  1  0.894973  0.018728  0.308360  1
  O  O50  1  0.605027  0.913387  0.123755  1
  O  O51  1  0.105027  0.623755  0.413387  1
  O  O52  1  0.913387  0.123755  0.605027  1
  O  O53  1  0.376245  0.289632  0.481272  1
  O  O54  1  0.308360  0.894973  0.018728  1
  O  O55  1  0.289632  0.308360  0.913387  1
  O  O56  1  0.710368  0.518728  0.623755  1
  O  O57  1  0.981272  0.691640  0.105027  1
  O  O58  1  0.876245  0.394973  0.086613  1
  O  O59  1  0.789632  0.413387  0.808360  1
  O  O60  1  0.789632  0.876245  0.981272  1
  O  O61  1  0.413387  0.808360  0.789632  1
  O  O62  1  0.394973  0.808360  0.518728  1
  O  O63  1  0.808360  0.789632  0.413387  1
  O  O64  1  0.710368  0.691640  0.086613  1
  O  O65  1  0.691640  0.105027  0.981272  1
  O  O66  1  0.623755  0.710368  0.518728  1
  O  O67  1  0.518728  0.623755  0.710368  1
  O  O68  1  0.086613  0.876245  0.394973  1
  O  O69  1  0.394973  0.086613  0.876245  1
  O  O70  1  0.105027  0.981272  0.691640  1
  O  O71  1  0.623755  0.413387  0.105027  1
  O  O72  1  0.518728  0.394973  0.808360  1
  O  O73  1  0.876245  0.981272  0.789632  1
  O  O74  1  0.413387  0.105027  0.623755  1
  O  O75  1  0.808360  0.518728  0.394973  1
  O  O76  1  0.981272  0.789632  0.876245  1
  O  O77  1  0.086613  0.710368  0.691640  1
  O  O78  1  0.691640  0.086613  0.710368  1
  O  O79  1  0.481272  0.376245  0.289632  1
