# generated using pymatgen
data_ZnCuP2O7
_symmetry_space_group_name_H-M   'P 1'
_cell_length_a   5.60466813
_cell_length_b   6.34643818
_cell_length_c   7.49858699
_cell_angle_alpha   83.80028839
_cell_angle_beta   90.24775259
_cell_angle_gamma   70.50299800
_symmetry_Int_Tables_number   1
_chemical_formula_structural   ZnCuP2O7
_chemical_formula_sum   'Zn2 Cu2 P4 O14'
_cell_volume   249.72571920
_cell_formula_units_Z   2
loop_
 _symmetry_equiv_pos_site_id
 _symmetry_equiv_pos_as_xyz
  1  'x, y, z'
loop_
 _atom_site_type_symbol
 _atom_site_label
 _atom_site_symmetry_multiplicity
 _atom_site_fract_x
 _atom_site_fract_y
 _atom_site_fract_z
 _atom_site_occupancy
  Zn  Zn0  1  0.326238  0.676377  0.643803  1
  Zn  Zn1  1  0.673763  0.323624  0.356197  1
  Cu  Cu2  1  0.272003  0.140458  0.181542  1
  Cu  Cu3  1  0.727999  0.859541  0.818458  1
  P  P4  1  0.172023  0.671304  0.108626  1
  P  P5  1  0.827975  0.328696  0.891374  1
  P  P6  1  0.219827  0.215978  0.611578  1
  P  P7  1  0.780174  0.784021  0.388421  1
  O  O8  1  0.079863  0.720555  0.909444  1
  O  O9  1  0.920138  0.279445  0.090556  1
  O  O10  1  0.284242  0.836028  0.174194  1
  O  O11  1  0.715757  0.163971  0.825806  1
  O  O12  1  0.356454  0.425722  0.154696  1
  O  O13  1  0.643548  0.574277  0.845305  1
  O  O14  1  0.625651  0.630395  0.443118  1
  O  O15  1  0.374348  0.369605  0.556883  1
  O  O16  1  0.037962  0.209632  0.463361  1
  O  O17  1  0.962037  0.790368  0.536639  1
  O  O18  1  0.078615  0.320338  0.783695  1
  O  O19  1  0.609752  0.029014  0.317047  1
  O  O20  1  0.390250  0.970985  0.682954  1
  O  O21  1  0.921384  0.679663  0.216304  1
