# generated using pymatgen
data_Al5(CoO4)3
_symmetry_space_group_name_H-M   'P 1'
_cell_length_a   17.07173632
_cell_length_b   5.75412493
_cell_length_c   5.75412475
_cell_angle_alpha   59.87344236
_cell_angle_beta   60.21599012
_cell_angle_gamma   60.21599113
_symmetry_Int_Tables_number   1
_chemical_formula_structural   Al5(CoO4)3
_chemical_formula_sum   'Al10 Co6 O24'
_cell_volume   400.60062166
_cell_formula_units_Z   2
loop_
 _symmetry_equiv_pos_site_id
 _symmetry_equiv_pos_as_xyz
  1  'x, y, z'
loop_
 _atom_site_type_symbol
 _atom_site_label
 _atom_site_symmetry_multiplicity
 _atom_site_fract_x
 _atom_site_fract_y
 _atom_site_fract_z
 _atom_site_occupancy
  Al  Al0  1  0.376790  0.628671  0.628671  1
  Al  Al1  1  0.706543  0.621329  0.621329  1
  Al  Al2  1  0.204137  0.627951  0.133354  1
  Al  Al3  1  0.541667  0.625000  0.125000  1
  Al  Al4  1  0.879196  0.622049  0.116646  1
  Al  Al5  1  0.204137  0.133354  0.627951  1
  Al  Al6  1  0.541667  0.125000  0.625000  1
  Al  Al7  1  0.879196  0.116646  0.622049  1
  Al  Al8  1  0.205274  0.624616  0.624616  1
  Al  Al9  1  0.878059  0.625384  0.625384  1
  Co  Co10  1  0.996445  0.003800  0.003800  1
  Co  Co11  1  0.334324  0.003882  0.003882  1
  Co  Co12  1  0.661195  0.015005  0.015005  1
  Co  Co13  1  0.086888  0.246200  0.246200  1
  Co  Co14  1  0.422139  0.234995  0.234995  1
  Co  Co15  1  0.749009  0.246118  0.246118  1
  O  O16  1  0.280789  0.385642  0.385642  1
  O  O17  1  0.619145  0.370189  0.370189  1
  O  O18  1  0.947531  0.387523  0.387523  1
  O  O19  1  0.289539  0.859940  0.859940  1
  O  O20  1  0.620252  0.862919  0.862919  1
  O  O21  1  0.944661  0.884263  0.884263  1
  O  O22  1  0.140083  0.852008  0.361148  1
  O  O23  1  0.456149  0.850620  0.370275  1
  O  O24  1  0.795462  0.833610  0.391018  1
  O  O25  1  0.140083  0.361148  0.852008  1
  O  O26  1  0.456149  0.370275  0.850620  1
  O  O27  1  0.795462  0.391018  0.833610  1
  O  O28  1  0.287871  0.858982  0.416390  1
  O  O29  1  0.627185  0.879725  0.399380  1
  O  O30  1  0.943250  0.888852  0.397992  1
  O  O31  1  0.287871  0.416390  0.858982  1
  O  O32  1  0.627185  0.399380  0.879725  1
  O  O33  1  0.943250  0.397992  0.888852  1
  O  O34  1  0.138672  0.365737  0.365737  1
  O  O35  1  0.463082  0.387081  0.387081  1
  O  O36  1  0.793794  0.390060  0.390060  1
  O  O37  1  0.135802  0.862477  0.862477  1
  O  O38  1  0.464189  0.879811  0.879811  1
  O  O39  1  0.802544  0.864358  0.864358  1
