# generated using pymatgen
data_Zn(SbO2)2
_symmetry_space_group_name_H-M   'P 1'
_cell_length_a   3.64387385
_cell_length_b   11.18447726
_cell_length_c   10.04507379
_cell_angle_alpha   90.00000162
_cell_angle_beta   90.00003093
_cell_angle_gamma   90.00023092
_symmetry_Int_Tables_number   1
_chemical_formula_structural   Zn(SbO2)2
_chemical_formula_sum   'Zn4 Sb8 O16'
_cell_volume   409.38521653
_cell_formula_units_Z   4
loop_
 _symmetry_equiv_pos_site_id
 _symmetry_equiv_pos_as_xyz
  1  'x, y, z'
loop_
 _atom_site_type_symbol
 _atom_site_label
 _atom_site_symmetry_multiplicity
 _atom_site_fract_x
 _atom_site_fract_y
 _atom_site_fract_z
 _atom_site_occupancy
  Zn  Zn0  1  0.654758  0.750001  0.142437  1
  Zn  Zn1  1  0.654786  0.250001  0.357563  1
  Zn  Zn2  1  0.345208  0.749998  0.642439  1
  Zn  Zn3  1  0.345238  0.250000  0.857561  1
  Sb  Sb4  1  0.914579  0.595027  0.374253  1
  Sb  Sb5  1  0.914566  0.095016  0.125736  1
  Sb  Sb6  1  0.085381  0.095038  0.625752  1
  Sb  Sb7  1  0.914699  0.404934  0.125784  1
  Sb  Sb8  1  0.085387  0.404963  0.625762  1
  Sb  Sb9  1  0.914655  0.904951  0.374229  1
  Sb  Sb10  1  0.085367  0.904953  0.874230  1
  Sb  Sb11  1  0.085371  0.595030  0.874257  1
  O  O12  1  0.234044  0.900116  0.536666  1
  O  O13  1  0.765949  0.099894  0.463328  1
  O  O14  1  0.235934  0.000010  0.249989  1
  O  O15  1  0.765966  0.900138  0.036677  1
  O  O16  1  0.765929  0.599898  0.036671  1
  O  O17  1  0.167524  0.250015  0.240727  1
  O  O18  1  0.234049  0.099876  0.963320  1
  O  O19  1  0.832500  0.249999  0.740727  1
  O  O20  1  0.235943  0.500011  0.250009  1
  O  O21  1  0.764064  0.999997  0.749996  1
  O  O22  1  0.234036  0.599875  0.536678  1
  O  O23  1  0.832481  0.750003  0.759273  1
  O  O24  1  0.167503  0.750013  0.259272  1
  O  O25  1  0.764065  0.499995  0.750003  1
  O  O26  1  0.234048  0.400114  0.963336  1
  O  O27  1  0.765970  0.400134  0.463323  1
