# generated using pymatgen
data_Y2Si3(NiO4)3
_symmetry_space_group_name_H-M   'P 1'
_cell_length_a   10.63978841
_cell_length_b   10.63978793
_cell_length_c   10.63978806
_cell_angle_alpha   109.47122088
_cell_angle_beta   109.47121998
_cell_angle_gamma   109.47122217
_symmetry_Int_Tables_number   1
_chemical_formula_structural   Y2Si3(NiO4)3
_chemical_formula_sum   'Y8 Si12 Ni12 O48'
_cell_volume   927.20772918
_cell_formula_units_Z   4
loop_
 _symmetry_equiv_pos_site_id
 _symmetry_equiv_pos_as_xyz
  1  'x, y, z'
loop_
 _atom_site_type_symbol
 _atom_site_label
 _atom_site_symmetry_multiplicity
 _atom_site_fract_x
 _atom_site_fract_y
 _atom_site_fract_z
 _atom_site_occupancy
  Y  Y0  1  0.500000  0.000000  0.000000  1
  Y  Y1  1  0.000000  0.000000  0.000000  1
  Y  Y2  1  0.000000  0.500000  0.000000  1
  Y  Y3  1  0.000000  0.000000  0.500000  1
  Y  Y4  1  0.000000  0.500000  0.500001  1
  Y  Y5  1  0.500000  0.000000  0.500001  1
  Y  Y6  1  0.500000  0.500000  0.000000  1
  Y  Y7  1  0.500000  0.500000  0.500000  1
  Si  Si8  1  0.250000  0.125000  0.875000  1
  Si  Si9  1  0.875000  0.250000  0.125000  1
  Si  Si10  1  0.625000  0.750001  0.375000  1
  Si  Si11  1  0.250000  0.625000  0.375001  1
  Si  Si12  1  0.375000  0.625000  0.750000  1
  Si  Si13  1  0.750000  0.375000  0.625000  1
  Si  Si14  1  0.875000  0.125000  0.750000  1
  Si  Si15  1  0.125000  0.750001  0.875000  1
  Si  Si16  1  0.125000  0.875001  0.250000  1
  Si  Si17  1  0.625000  0.375000  0.250000  1
  Si  Si18  1  0.375000  0.250000  0.625000  1
  Si  Si19  1  0.750000  0.875001  0.125000  1
  Ni  Ni20  1  0.250000  0.875001  0.625000  1
  Ni  Ni21  1  0.875000  0.625000  0.250000  1
  Ni  Ni22  1  0.625001  0.875001  0.750001  1
  Ni  Ni23  1  0.875001  0.750001  0.625001  1
  Ni  Ni24  1  0.625000  0.250000  0.875000  1
  Ni  Ni25  1  0.750000  0.625000  0.875000  1
  Ni  Ni26  1  0.750000  0.125000  0.375000  1
  Ni  Ni27  1  0.125000  0.375000  0.750000  1
  Ni  Ni28  1  0.375000  0.125000  0.250000  1
  Ni  Ni29  1  0.125000  0.250000  0.375000  1
  Ni  Ni30  1  0.375000  0.750001  0.125000  1
  Ni  Ni31  1  0.250000  0.375000  0.125000  1
  O  O32  1  0.274140  0.477196  0.369291  1
  O  O33  1  0.022804  0.296944  0.892094  1
  O  O34  1  0.130709  0.607906  0.904850  1
  O  O35  1  0.225859  0.595150  0.203056  1
  O  O36  1  0.225859  0.130708  0.022803  1
  O  O37  1  0.595149  0.203055  0.225859  1
  O  O38  1  0.607905  0.203055  0.477196  1
  O  O39  1  0.203056  0.225859  0.595151  1
  O  O40  1  0.892095  0.369291  0.595150  1
  O  O41  1  0.296945  0.904850  0.274141  1
  O  O42  1  0.904850  0.274141  0.296945  1
  O  O43  1  0.022804  0.225859  0.130708  1
  O  O44  1  0.203056  0.477196  0.607906  1
  O  O45  1  0.595150  0.892095  0.369292  1
  O  O46  1  0.130708  0.022803  0.225859  1
  O  O47  1  0.477196  0.607906  0.203055  1
  O  O48  1  0.369291  0.595150  0.892094  1
  O  O49  1  0.892094  0.022803  0.296944  1
  O  O50  1  0.607905  0.904850  0.130709  1
  O  O51  1  0.107905  0.630708  0.404850  1
  O  O52  1  0.477196  0.369291  0.274140  1
  O  O53  1  0.369291  0.274141  0.477196  1
  O  O54  1  0.296945  0.892095  0.022804  1
  O  O55  1  0.274140  0.296944  0.904849  1
  O  O56  1  0.725859  0.522803  0.630709  1
  O  O57  1  0.977196  0.703055  0.107905  1
  O  O58  1  0.869292  0.392095  0.095150  1
  O  O59  1  0.774141  0.404850  0.796945  1
  O  O60  1  0.774140  0.869292  0.977197  1
  O  O61  1  0.404850  0.796944  0.774140  1
  O  O62  1  0.392095  0.796944  0.522803  1
  O  O63  1  0.796945  0.774141  0.404850  1
  O  O64  1  0.725859  0.703055  0.095150  1
  O  O65  1  0.703056  0.107906  0.977196  1
  O  O66  1  0.630708  0.725860  0.522804  1
  O  O67  1  0.522804  0.630708  0.725859  1
  O  O68  1  0.095150  0.869292  0.392094  1
  O  O69  1  0.392094  0.095149  0.869291  1
  O  O70  1  0.107906  0.977196  0.703055  1
  O  O71  1  0.630709  0.404850  0.107905  1
  O  O72  1  0.522804  0.392095  0.796945  1
  O  O73  1  0.869292  0.977196  0.774141  1
  O  O74  1  0.404851  0.107906  0.630709  1
  O  O75  1  0.796944  0.522803  0.392095  1
  O  O76  1  0.977196  0.774141  0.869292  1
  O  O77  1  0.095151  0.725860  0.703056  1
  O  O78  1  0.703055  0.095149  0.725859  1
  O  O79  1  0.904850  0.130708  0.607905  1
