# generated using pymatgen
data_Sr2AlGaW2O7
_symmetry_space_group_name_H-M   'P 1'
_cell_length_a   5.68645096
_cell_length_b   6.13744773
_cell_length_c   11.81131333
_cell_angle_alpha   104.05734397
_cell_angle_beta   104.03315646
_cell_angle_gamma   91.25736963
_symmetry_Int_Tables_number   1
_chemical_formula_structural   Sr2AlGaW2O7
_chemical_formula_sum   'Sr4 Al2 Ga2 W4 O14'
_cell_volume   386.50574181
_cell_formula_units_Z   2
loop_
 _symmetry_equiv_pos_site_id
 _symmetry_equiv_pos_as_xyz
  1  'x, y, z'
loop_
 _atom_site_type_symbol
 _atom_site_label
 _atom_site_symmetry_multiplicity
 _atom_site_fract_x
 _atom_site_fract_y
 _atom_site_fract_z
 _atom_site_occupancy
  Sr  Sr0  1  0.183951  0.185783  0.303492  1
  Sr  Sr1  1  0.817827  0.783037  0.669530  1
  Sr  Sr2  1  0.656603  0.636648  0.308392  1
  Sr  Sr3  1  0.336805  0.384516  0.683158  1
  Al  Al4  1  0.405843  0.401328  0.023970  1
  Al  Al5  1  0.899154  0.876523  0.946646  1
  Ga  Ga6  1  0.213933  0.832183  0.493402  1
  Ga  Ga7  1  0.723595  0.170640  0.495068  1
  W  W8  1  0.437058  0.929560  0.854455  1
  W  W9  1  0.064376  0.610886  0.141835  1
  W  W10  1  0.950031  0.414504  0.856932  1
  W  W11  1  0.599899  0.069288  0.148030  1
  O  O12  1  0.717050  0.401791  0.107587  1
  O  O13  1  0.890334  0.907687  0.498339  1
  O  O14  1  0.283385  0.292481  0.128485  1
  O  O15  1  0.863578  0.368487  0.646365  1
  O  O16  1  0.792487  0.081220  0.852000  1
  O  O17  1  0.298020  0.260174  0.866837  1
  O  O18  1  0.395267  0.104160  0.502876  1
  O  O19  1  0.111858  0.750327  0.858030  1
  O  O20  1  0.658978  0.640527  0.842050  1
  O  O21  1  0.336249  0.771725  0.644923  1
  O  O22  1  0.195723  0.609259  0.354606  1
  O  O23  1  0.693579  0.259569  0.354218  1
  O  O24  1  0.877498  0.875710  0.211107  1
  O  O25  1  0.377195  0.844437  0.195865  1
