# generated using pymatgen
data_MgTiMo(PO4)3
_symmetry_space_group_name_H-M   'P 1'
_cell_length_a   8.65877609
_cell_length_b   8.65877388
_cell_length_c   8.65877128
_cell_angle_alpha   60.68059937
_cell_angle_beta   60.68071287
_cell_angle_gamma   60.68065293
_symmetry_Int_Tables_number   1
_chemical_formula_structural   MgTiMo(PO4)3
_chemical_formula_sum   'Mg2 Ti2 Mo2 P6 O24'
_cell_volume   466.09682023
_cell_formula_units_Z   2
loop_
 _symmetry_equiv_pos_site_id
 _symmetry_equiv_pos_as_xyz
  1  'x, y, z'
loop_
 _atom_site_type_symbol
 _atom_site_label
 _atom_site_symmetry_multiplicity
 _atom_site_fract_x
 _atom_site_fract_y
 _atom_site_fract_z
 _atom_site_occupancy
  Mg  Mg0  1  0.000765  0.000766  0.000770  1
  Mg  Mg1  1  0.500761  0.500762  0.500763  1
  Ti  Ti2  1  0.146043  0.146043  0.146044  1
  Ti  Ti3  1  0.646042  0.646042  0.646044  1
  Mo  Mo4  1  0.357817  0.357818  0.357818  1
  Mo  Mo5  1  0.857817  0.857817  0.857817  1
  P  P6  1  0.043574  0.448718  0.757393  1
  P  P7  1  0.448719  0.757393  0.043575  1
  P  P8  1  0.757394  0.043574  0.448718  1
  P  P9  1  0.257388  0.948725  0.543566  1
  P  P10  1  0.543566  0.257389  0.948724  1
  P  P11  1  0.948725  0.543567  0.257388  1
  O  O12  1  0.095889  0.504374  0.328402  1
  O  O13  1  0.328402  0.095889  0.504373  1
  O  O14  1  0.052870  0.253278  0.914760  1
  O  O15  1  0.504373  0.328402  0.095889  1
  O  O16  1  0.004373  0.595891  0.828402  1
  O  O17  1  0.238889  0.434615  0.601542  1
  O  O18  1  0.253277  0.914759  0.052869  1
  O  O19  1  0.434614  0.601543  0.238888  1
  O  O20  1  0.190152  0.001868  0.379054  1
  O  O21  1  0.601544  0.238888  0.434613  1
  O  O22  1  0.101542  0.934613  0.738892  1
  O  O23  1  0.379054  0.190151  0.001867  1
  O  O24  1  0.595892  0.828402  0.004372  1
  O  O25  1  0.914759  0.052870  0.253279  1
  O  O26  1  0.414764  0.753277  0.552869  1
  O  O27  1  0.828401  0.004373  0.595891  1
  O  O28  1  0.552869  0.414762  0.753277  1
  O  O29  1  0.738890  0.101542  0.934613  1
  O  O30  1  0.753276  0.552871  0.414763  1
  O  O31  1  0.001868  0.379053  0.190151  1
  O  O32  1  0.501870  0.690150  0.879045  1
  O  O33  1  0.934614  0.738890  0.101543  1
  O  O34  1  0.690150  0.879048  0.501872  1
  O  O35  1  0.879046  0.501871  0.690148  1
