# generated using pymatgen
data_Mo4O9
_symmetry_space_group_name_H-M   'P 1'
_cell_length_a   3.85187469
_cell_length_b   9.62232905
_cell_length_c   9.62156366
_cell_angle_alpha   89.99368810
_cell_angle_beta   90.00028836
_cell_angle_gamma   89.99996229
_symmetry_Int_Tables_number   1
_chemical_formula_structural   Mo4O9
_chemical_formula_sum   'Mo8 O18'
_cell_volume   356.61368845
_cell_formula_units_Z   2
loop_
 _symmetry_equiv_pos_site_id
 _symmetry_equiv_pos_as_xyz
  1  'x, y, z'
loop_
 _atom_site_type_symbol
 _atom_site_label
 _atom_site_symmetry_multiplicity
 _atom_site_fract_x
 _atom_site_fract_y
 _atom_site_fract_z
 _atom_site_occupancy
  Mo  Mo0  1  0.504192  0.534856  0.338425  1
  Mo  Mo1  1  0.495799  0.838458  0.465151  1
  Mo  Mo2  1  0.504126  0.338561  0.965060  1
  Mo  Mo3  1  0.495869  0.034946  0.838516  1
  Mo  Mo4  1  0.504135  0.965145  0.161580  1
  Mo  Mo5  1  0.504152  0.161438  0.534939  1
  Mo  Mo6  1  0.495932  0.465054  0.661481  1
  Mo  Mo7  1  0.495802  0.661548  0.034848  1
  O  O8  1  0.499984  0.749999  0.249999  1
  O  O9  1  0.500016  0.249995  0.750006  1
  O  O10  1  0.997382  0.665007  0.034998  1
  O  O11  1  0.997501  0.465030  0.665385  1
  O  O12  1  0.997449  0.034967  0.834614  1
  O  O13  1  0.997388  0.834991  0.465003  1
  O  O14  1  0.002542  0.334615  0.965064  1
  O  O15  1  0.002610  0.535032  0.335001  1
  O  O16  1  0.002562  0.964970  0.165001  1
  O  O17  1  0.002567  0.165385  0.534934  1
  O  O18  1  0.500822  0.028029  0.366256  1
  O  O19  1  0.500795  0.133760  0.028077  1
  O  O20  1  0.500854  0.366242  0.471922  1
  O  O21  1  0.500825  0.471970  0.133741  1
  O  O22  1  0.499173  0.528051  0.866223  1
  O  O23  1  0.499154  0.866279  0.971936  1
  O  O24  1  0.499206  0.633720  0.528065  1
  O  O25  1  0.499164  0.971952  0.633779  1
