# generated using pymatgen
data_Zn(NiO2)2
_symmetry_space_group_name_H-M   'P 1'
_cell_length_a   5.86648836
_cell_length_b   5.87357991
_cell_length_c   17.75525201
_cell_angle_alpha   59.46277939
_cell_angle_beta   59.76715033
_cell_angle_gamma   60.81655806
_symmetry_Int_Tables_number   1
_chemical_formula_structural   Zn(NiO2)2
_chemical_formula_sum   'Zn6 Ni12 O24'
_cell_volume   432.62454849
_cell_formula_units_Z   6
loop_
 _symmetry_equiv_pos_site_id
 _symmetry_equiv_pos_as_xyz
  1  'x, y, z'
loop_
 _atom_site_type_symbol
 _atom_site_label
 _atom_site_symmetry_multiplicity
 _atom_site_fract_x
 _atom_site_fract_y
 _atom_site_fract_z
 _atom_site_occupancy
  Zn  Zn0  1  0.114592  0.131159  0.044447  1
  Zn  Zn1  1  0.122103  0.120602  0.378627  1
  Zn  Zn2  1  0.504256  0.500036  0.998940  1
  Zn  Zn3  1  0.109790  0.139817  0.709388  1
  Zn  Zn4  1  0.874655  0.876738  0.288454  1
  Zn  Zn5  1  0.885665  0.870411  0.624156  1
  Ni  Ni6  1  0.998952  0.499522  0.166821  1
  Ni  Ni7  1  0.497814  0.500153  0.166954  1
  Ni  Ni8  1  0.000398  0.494328  0.501430  1
  Ni  Ni9  1  0.497188  0.997514  0.168031  1
  Ni  Ni10  1  0.496042  0.494966  0.335421  1
  Ni  Ni11  1  0.503846  0.495435  0.500067  1
  Ni  Ni12  1  0.002809  0.505751  0.832005  1
  Ni  Ni13  1  0.503149  0.997043  0.500204  1
  Ni  Ni14  1  0.498699  0.002323  0.832824  1
  Ni  Ni15  1  0.498093  0.509112  0.665830  1
  Ni  Ni16  1  0.498210  0.504851  0.832039  1
  Ni  Ni17  1  0.887609  0.866290  0.954895  1
  O  O18  1  0.252393  0.249241  0.096242  1
  O  O19  1  0.264137  0.269569  0.241652  1
  O  O20  1  0.254301  0.719087  0.091221  1
  O  O21  1  0.707020  0.256429  0.094966  1
  O  O22  1  0.289007  0.735440  0.243710  1
  O  O23  1  0.237326  0.267859  0.427356  1
  O  O24  1  0.736138  0.289212  0.243215  1
  O  O25  1  0.735449  0.730517  0.089864  1
  O  O26  1  0.263877  0.707206  0.426075  1
  O  O27  1  0.281086  0.250854  0.572544  1
  O  O28  1  0.741755  0.740394  0.240025  1
  O  O29  1  0.715576  0.242135  0.420320  1
  O  O30  1  0.294784  0.745251  0.581532  1
  O  O31  1  0.245032  0.292341  0.752205  1
  O  O32  1  0.738382  0.282864  0.576134  1
  O  O33  1  0.725129  0.743436  0.427320  1
  O  O34  1  0.242512  0.271890  0.905453  1
  O  O35  1  0.244342  0.725737  0.757644  1
  O  O36  1  0.758261  0.718429  0.578533  1
  O  O37  1  0.700633  0.292821  0.750482  1
  O  O38  1  0.285907  0.722687  0.909496  1
  O  O39  1  0.758601  0.731382  0.761793  1
  O  O40  1  0.764997  0.281205  0.904498  1
  O  O41  1  0.769485  0.727965  0.907185  1
