# generated using pymatgen
data_Mg3Sn2O7
_symmetry_space_group_name_H-M   'P 1'
_cell_length_a   5.47976291
_cell_length_b   5.42322271
_cell_length_c   9.68485622
_cell_angle_alpha   106.25928512
_cell_angle_beta   90.00000000
_cell_angle_gamma   90.00000000
_symmetry_Int_Tables_number   1
_chemical_formula_structural   Mg3Sn2O7
_chemical_formula_sum   'Mg6 Sn4 O14'
_cell_volume   276.30303260
_cell_formula_units_Z   2
loop_
 _symmetry_equiv_pos_site_id
 _symmetry_equiv_pos_as_xyz
  1  'x, y, z'
loop_
 _atom_site_type_symbol
 _atom_site_label
 _atom_site_symmetry_multiplicity
 _atom_site_fract_x
 _atom_site_fract_y
 _atom_site_fract_z
 _atom_site_occupancy
  Mg  Mg0  1  0.716229  0.741875  1.000000  1
  Mg  Mg1  1  0.216229  0.258125  0.000000  1
  Mg  Mg2  1  0.804649  0.581246  0.600049  1
  Mg  Mg3  1  0.304649  0.418754  0.399951  1
  Mg  Mg4  1  0.804649  0.981196  0.399951  1
  Mg  Mg5  1  0.304649  0.018804  0.600049  1
  Sn  Sn6  1  0.753375  0.357659  0.209981  1
  Sn  Sn7  1  0.253375  0.642341  0.790019  1
  Sn  Sn8  1  0.253375  0.852322  0.209981  1
  Sn  Sn9  1  0.753375  0.147678  0.790019  1
  O  O10  1  0.675456  0.922645  0.584005  1
  O  O11  1  0.175456  0.077355  0.415995  1
  O  O12  1  0.175456  0.661359  0.584005  1
  O  O13  1  0.675456  0.338641  0.415995  1
  O  O14  1  0.076395  0.285085  0.730908  1
  O  O15  1  0.576395  0.714915  0.269092  1
  O  O16  1  0.576395  0.445823  0.730908  1
  O  O17  1  0.076395  0.554177  0.269092  1
  O  O18  1  0.920653  0.836801  0.845676  1
  O  O19  1  0.420653  0.163199  0.154324  1
  O  O20  1  0.842717  0.381140  0.000000  1
  O  O21  1  0.342717  0.618860  1.000000  1
  O  O22  1  0.920653  0.991124  0.154324  1
  O  O23  1  0.420653  0.008876  0.845676  1
