# generated using pymatgen
data_Mg2TaTiO6
_symmetry_space_group_name_H-M   'P 1'
_cell_length_a   5.21403423
_cell_length_b   5.40524447
_cell_length_c   7.63376394
_cell_angle_alpha   90.00000000
_cell_angle_beta   90.00000000
_cell_angle_gamma   90.11296191
_symmetry_Int_Tables_number   1
_chemical_formula_structural   Mg2TaTiO6
_chemical_formula_sum   'Mg4 Ta2 Ti2 O12'
_cell_volume   215.14294090
_cell_formula_units_Z   2
loop_
 _symmetry_equiv_pos_site_id
 _symmetry_equiv_pos_as_xyz
  1  'x, y, z'
loop_
 _atom_site_type_symbol
 _atom_site_label
 _atom_site_symmetry_multiplicity
 _atom_site_fract_x
 _atom_site_fract_y
 _atom_site_fract_z
 _atom_site_occupancy
  Mg  Mg0  1  0.005408  0.957755  0.250000  1
  Mg  Mg1  1  0.486437  0.434888  0.250000  1
  Mg  Mg2  1  0.513563  0.565112  0.750000  1
  Mg  Mg3  1  0.994592  0.042245  0.750000  1
  Ta  Ta4  1  0.000000  0.500000  0.000000  1
  Ta  Ta5  1  0.000000  0.500000  0.500000  1
  Ti  Ti6  1  0.500000  0.000000  0.000000  1
  Ti  Ti7  1  0.500000  0.000000  0.500000  1
  O  O8  1  0.823641  0.810847  0.568370  1
  O  O9  1  0.316956  0.683643  0.431293  1
  O  O10  1  0.176359  0.189153  0.431630  1
  O  O11  1  0.683044  0.316357  0.931293  1
  O  O12  1  0.133394  0.439856  0.750000  1
  O  O13  1  0.683044  0.316357  0.568707  1
  O  O14  1  0.316956  0.683643  0.068707  1
  O  O15  1  0.823641  0.810847  0.931630  1
  O  O16  1  0.625814  0.063914  0.250000  1
  O  O17  1  0.176359  0.189153  0.068370  1
  O  O18  1  0.374186  0.936086  0.750000  1
  O  O19  1  0.866606  0.560144  0.250000  1
