# generated using pymatgen
data_V4Zn(CuO4)3
_symmetry_space_group_name_H-M   'P 1'
_cell_length_a   6.38821950
_cell_length_b   6.40820814
_cell_length_c   6.39499835
_cell_angle_alpha   109.68240203
_cell_angle_beta   109.40319467
_cell_angle_gamma   109.65194922
_symmetry_Int_Tables_number   1
_chemical_formula_structural   V4Zn(CuO4)3
_chemical_formula_sum   'V4 Zn1 Cu3 O12'
_cell_volume   200.71715607
_cell_formula_units_Z   1
loop_
 _symmetry_equiv_pos_site_id
 _symmetry_equiv_pos_as_xyz
  1  'x, y, z'
loop_
 _atom_site_type_symbol
 _atom_site_label
 _atom_site_symmetry_multiplicity
 _atom_site_fract_x
 _atom_site_fract_y
 _atom_site_fract_z
 _atom_site_occupancy
  V  V0  1  0.000001  0.000004  0.499999  1
  V  V1  1  0.999996  0.500002  0.999998  1
  V  V2  1  0.500001  0.499997  0.500000  1
  V  V3  1  0.500001  0.000002  0.999999  1
  Zn  Zn4  1  0.000003  0.000003  0.999994  1
  Cu  Cu5  1  0.499998  0.499999  -0.000001  1
  Cu  Cu6  1  0.000001  0.500001  0.499999  1
  Cu  Cu7  1  0.500000  -0.000004  0.499999  1
  O  O8  1  0.813487  0.294004  0.122442  1
  O  O9  1  0.186515  0.705996  0.877559  1
  O  O10  1  0.822299  0.698796  0.522183  1
  O  O11  1  0.302769  0.480295  0.177294  1
  O  O12  1  0.477534  0.176768  0.303105  1
  O  O13  1  0.121331  0.813357  0.294819  1
  O  O14  1  0.704987  0.878271  0.186358  1
  O  O15  1  0.522466  0.823225  0.696897  1
  O  O16  1  0.177703  0.301205  0.477817  1
  O  O17  1  0.697223  0.519704  0.822712  1
  O  O18  1  0.878671  0.186642  0.705181  1
  O  O19  1  0.295014  0.121731  0.813644  1
