# generated using pymatgen
data_Zn(BiO2)4
_symmetry_space_group_name_H-M   'P 1'
_cell_length_a   3.41060257
_cell_length_b   8.80446748
_cell_length_c   8.90937419
_cell_angle_alpha   69.85294668
_cell_angle_beta   78.35562135
_cell_angle_gamma   78.47651835
_symmetry_Int_Tables_number   1
_chemical_formula_structural   Zn(BiO2)4
_chemical_formula_sum   'Zn1 Bi4 O8'
_cell_volume   243.51565173
_cell_formula_units_Z   1
loop_
 _symmetry_equiv_pos_site_id
 _symmetry_equiv_pos_as_xyz
  1  'x, y, z'
loop_
 _atom_site_type_symbol
 _atom_site_label
 _atom_site_symmetry_multiplicity
 _atom_site_fract_x
 _atom_site_fract_y
 _atom_site_fract_z
 _atom_site_occupancy
  Zn  Zn0  1  0.297652  0.185557  0.222995  1
  Bi  Bi1  1  0.641155  0.150360  0.571213  1
  Bi  Bi2  1  0.133250  0.554178  0.202556  1
  Bi  Bi3  1  0.858184  0.449700  0.848023  1
  Bi  Bi4  1  0.357798  0.808888  0.489127  1
  O  O5  1  0.879033  0.643531  0.614174  1
  O  O6  1  0.460573  0.325954  0.775640  1
  O  O7  1  0.534220  0.684503  0.265135  1
  O  O8  1  0.151390  0.306418  0.394052  1
  O  O9  1  0.194698  0.966324  0.647856  1
  O  O10  1  0.802465  0.301025  0.098608  1
  O  O11  1  0.813008  0.034025  0.363979  1
  O  O12  1  0.254735  0.580174  0.915435  1
