# generated using pymatgen
data_CaMn(SiO3)2
_symmetry_space_group_name_H-M   'P 1'
_cell_length_a   5.49333343
_cell_length_b   9.78113512
_cell_length_c   19.25740722
_cell_angle_alpha   90.00000000
_cell_angle_beta   90.00000000
_cell_angle_gamma   90.00000000
_symmetry_Int_Tables_number   1
_chemical_formula_structural   CaMn(SiO3)2
_chemical_formula_sum   'Ca8 Mn8 Si16 O48'
_cell_volume   1034.72045097
_cell_formula_units_Z   8
loop_
 _symmetry_equiv_pos_site_id
 _symmetry_equiv_pos_as_xyz
  1  'x, y, z'
loop_
 _atom_site_type_symbol
 _atom_site_label
 _atom_site_symmetry_multiplicity
 _atom_site_fract_x
 _atom_site_fract_y
 _atom_site_fract_z
 _atom_site_occupancy
  Ca  Ca0  1  0.610023  0.145657  0.622352  1
  Ca  Ca1  1  0.389977  0.854343  0.377648  1
  Ca  Ca2  1  0.610023  0.645657  0.877648  1
  Ca  Ca3  1  0.110023  0.854343  0.877648  1
  Ca  Ca4  1  0.889977  0.145657  0.122352  1
  Ca  Ca5  1  0.389977  0.354343  0.122352  1
  Ca  Ca6  1  0.110023  0.354343  0.622352  1
  Ca  Ca7  1  0.889977  0.645657  0.377648  1
  Mn  Mn8  1  0.389059  0.988357  0.128652  1
  Mn  Mn9  1  0.610941  0.011643  0.871348  1
  Mn  Mn10  1  0.889059  0.011643  0.371348  1
  Mn  Mn11  1  0.110941  0.988357  0.628652  1
  Mn  Mn12  1  0.389059  0.488357  0.371348  1
  Mn  Mn13  1  0.610941  0.511643  0.628652  1
  Mn  Mn14  1  0.889059  0.511643  0.128652  1
  Mn  Mn15  1  0.110941  0.488357  0.871348  1
  Si  Si16  1  0.556877  0.666345  0.226411  1
  Si  Si17  1  0.749663  0.832882  0.523639  1
  Si  Si18  1  0.750337  0.832882  0.023639  1
  Si  Si19  1  0.943123  0.166345  0.773589  1
  Si  Si20  1  0.056877  0.333655  0.273589  1
  Si  Si21  1  0.443123  0.833655  0.726411  1
  Si  Si22  1  0.249663  0.667118  0.523639  1
  Si  Si23  1  0.749663  0.332882  0.976361  1
  Si  Si24  1  0.750337  0.332882  0.476361  1
  Si  Si25  1  0.943123  0.666345  0.726411  1
  Si  Si26  1  0.443123  0.333655  0.773589  1
  Si  Si27  1  0.556877  0.166345  0.273589  1
  Si  Si28  1  0.250337  0.167118  0.476361  1
  Si  Si29  1  0.056877  0.833655  0.226411  1
  Si  Si30  1  0.250337  0.667118  0.023639  1
  Si  Si31  1  0.249663  0.167118  0.976361  1
  O  O32  1  0.926593  0.520099  0.687293  1
  O  O33  1  0.308141  0.030240  0.932463  1
  O  O34  1  0.073407  0.479901  0.312707  1
  O  O35  1  0.749599  0.348285  0.061200  1
  O  O36  1  0.249599  0.151715  0.061200  1
  O  O37  1  0.969037  0.220819  0.955139  1
  O  O38  1  0.955843  0.658377  0.811039  1
  O  O39  1  0.044157  0.841623  0.311039  1
  O  O40  1  0.749599  0.848285  0.438800  1
  O  O41  1  0.955843  0.158377  0.688961  1
  O  O42  1  0.426593  0.479901  0.812707  1
  O  O43  1  0.750401  0.348285  0.561200  1
  O  O44  1  0.691859  0.969760  0.067537  1
  O  O45  1  0.455843  0.841623  0.811039  1
  O  O46  1  0.573407  0.020099  0.312707  1
  O  O47  1  0.308141  0.530240  0.567537  1
  O  O48  1  0.426593  0.979901  0.687293  1
  O  O49  1  0.182369  0.758282  0.700168  1
  O  O50  1  0.317631  0.758282  0.200168  1
  O  O51  1  0.530963  0.720819  0.044861  1
  O  O52  1  0.750401  0.848285  0.938800  1
  O  O53  1  0.544157  0.658377  0.311039  1
  O  O54  1  0.808141  0.469760  0.932463  1
  O  O55  1  0.182369  0.258282  0.799832  1
  O  O56  1  0.250401  0.151715  0.561200  1
  O  O57  1  0.544157  0.158377  0.188961  1
  O  O58  1  0.691859  0.469760  0.432463  1
  O  O59  1  0.249599  0.651715  0.438800  1
  O  O60  1  0.191859  0.530240  0.067537  1
  O  O61  1  0.682369  0.741718  0.700168  1
  O  O62  1  0.073407  0.979901  0.187293  1
  O  O63  1  0.817631  0.741718  0.200168  1
  O  O64  1  0.817631  0.241718  0.299832  1
  O  O65  1  0.808141  0.969760  0.567537  1
  O  O66  1  0.250401  0.651715  0.938800  1
  O  O67  1  0.191859  0.030240  0.432463  1
  O  O68  1  0.317631  0.258282  0.299832  1
  O  O69  1  0.030963  0.779181  0.044861  1
  O  O70  1  0.469037  0.779181  0.544861  1
  O  O71  1  0.682369  0.241718  0.799832  1
  O  O72  1  0.469037  0.279181  0.955139  1
  O  O73  1  0.530963  0.220819  0.455139  1
  O  O74  1  0.030963  0.279181  0.455139  1
  O  O75  1  0.455843  0.341623  0.688961  1
  O  O76  1  0.573407  0.520099  0.187293  1
  O  O77  1  0.969037  0.720819  0.544861  1
  O  O78  1  0.044157  0.341623  0.188961  1
  O  O79  1  0.926593  0.020099  0.812707  1
