# generated using pymatgen
data_SrZnCo(PO4)2
_symmetry_space_group_name_H-M   'P 1'
_cell_length_a   5.50506061
_cell_length_b   7.01262929
_cell_length_c   9.43528815
_cell_angle_alpha   110.64882851
_cell_angle_beta   102.07411001
_cell_angle_gamma   98.16641618
_symmetry_Int_Tables_number   1
_chemical_formula_structural   SrZnCo(PO4)2
_chemical_formula_sum   'Sr2 Zn2 Co2 P4 O16'
_cell_volume   323.90644199
_cell_formula_units_Z   2
loop_
 _symmetry_equiv_pos_site_id
 _symmetry_equiv_pos_as_xyz
  1  'x, y, z'
loop_
 _atom_site_type_symbol
 _atom_site_label
 _atom_site_symmetry_multiplicity
 _atom_site_fract_x
 _atom_site_fract_y
 _atom_site_fract_z
 _atom_site_occupancy
  Sr  Sr0  1  0.248817  0.800005  0.050629  1
  Sr  Sr1  1  0.751183  0.199995  0.949371  1
  Zn  Zn2  1  0.990494  0.379293  0.645502  1
  Zn  Zn3  1  0.009506  0.620707  0.354498  1
  Co  Co4  1  0.633481  0.849035  0.559657  1
  Co  Co5  1  0.366519  0.150965  0.440343  1
  P  P6  1  0.395246  0.425089  0.236248  1
  P  P7  1  0.604754  0.574911  0.763752  1
  P  P8  1  0.842768  0.023410  0.302717  1
  P  P9  1  0.157232  0.976590  0.697283  1
  O  O10  1  0.811207  0.555835  0.893299  1
  O  O11  1  0.665261  0.475111  0.212193  1
  O  O12  1  0.657695  0.795146  0.760474  1
  O  O13  1  0.953050  0.114922  0.695505  1
  O  O14  1  0.334739  0.524889  0.787807  1
  O  O15  1  0.998618  0.750189  0.578007  1
  O  O16  1  0.001382  0.249811  0.421993  1
  O  O17  1  0.261783  0.995678  0.865559  1
  O  O18  1  0.342305  0.204854  0.239526  1
  O  O19  1  0.738217  0.004322  0.134441  1
  O  O20  1  0.188793  0.444165  0.106701  1
  O  O21  1  0.373778  0.591509  0.395857  1
  O  O22  1  0.626222  0.408491  0.604143  1
  O  O23  1  0.622353  0.952078  0.367330  1
  O  O24  1  0.046950  0.885078  0.304495  1
  O  O25  1  0.377647  0.047922  0.632670  1
