# generated using pymatgen
data_ZnCu3(SnO3)4
_symmetry_space_group_name_H-M   'P 1'
_cell_length_a   6.69783422
_cell_length_b   6.69783322
_cell_length_c   6.69783430
_cell_angle_alpha   109.47122387
_cell_angle_beta   109.47122086
_cell_angle_gamma   109.47121483
_symmetry_Int_Tables_number   1
_chemical_formula_structural   ZnCu3(SnO3)4
_chemical_formula_sum   'Zn1 Cu3 Sn4 O12'
_cell_volume   231.30298848
_cell_formula_units_Z   1
loop_
 _symmetry_equiv_pos_site_id
 _symmetry_equiv_pos_as_xyz
  1  'x, y, z'
loop_
 _atom_site_type_symbol
 _atom_site_label
 _atom_site_symmetry_multiplicity
 _atom_site_fract_x
 _atom_site_fract_y
 _atom_site_fract_z
 _atom_site_occupancy
  Zn  Zn0  1  0.000000  0.000000  0.000000  1
  Cu  Cu1  1  0.500000  0.500000  0.000000  1
  Cu  Cu2  1  0.000000  0.500000  0.500000  1
  Cu  Cu3  1  0.500000  0.000000  0.500000  1
  Sn  Sn4  1  0.000000  0.000000  0.500000  1
  Sn  Sn5  1  0.000000  0.500000  0.000000  1
  Sn  Sn6  1  0.500000  0.500000  0.500000  1
  Sn  Sn7  1  0.500000  0.000000  0.000000  1
  O  O8  1  0.830536  0.307719  0.138255  1
  O  O9  1  0.169464  0.692281  0.861745  1
  O  O10  1  0.830536  0.692281  0.522818  1
  O  O11  1  0.307719  0.477183  0.169464  1
  O  O12  1  0.477183  0.169464  0.307719  1
  O  O13  1  0.138255  0.830536  0.307719  1
  O  O14  1  0.692281  0.861745  0.169464  1
  O  O15  1  0.522818  0.830536  0.692281  1
  O  O16  1  0.169464  0.307719  0.477183  1
  O  O17  1  0.692281  0.522818  0.830536  1
  O  O18  1  0.861745  0.169464  0.692281  1
  O  O19  1  0.307719  0.138255  0.830536  1
