# generated using pymatgen
data_Y2Mn3O9
_symmetry_space_group_name_H-M   'P 1'
_cell_length_a   6.05804587
_cell_length_b   6.05804555
_cell_length_c   11.98800267
_cell_angle_alpha   90.00000000
_cell_angle_beta   90.00000000
_cell_angle_gamma   120.00000174
_symmetry_Int_Tables_number   1
_chemical_formula_structural   Y2Mn3O9
_chemical_formula_sum   'Y4 Mn6 O18'
_cell_volume   381.01541553
_cell_formula_units_Z   2
loop_
 _symmetry_equiv_pos_site_id
 _symmetry_equiv_pos_as_xyz
  1  'x, y, z'
loop_
 _atom_site_type_symbol
 _atom_site_label
 _atom_site_symmetry_multiplicity
 _atom_site_fract_x
 _atom_site_fract_y
 _atom_site_fract_z
 _atom_site_occupancy
  Y  Y0  1  0.666667  0.333333  0.229481  1
  Y  Y1  1  0.333333  0.666667  0.729481  1
  Y  Y2  1  0.000000  0.000000  0.775744  1
  Y  Y3  1  0.000000  0.000000  0.275745  1
  Mn  Mn4  1  0.669540  0.005474  0.502701  1
  Mn  Mn5  1  0.664066  0.669540  0.002701  1
  Mn  Mn6  1  0.005474  0.335934  0.002701  1
  Mn  Mn7  1  0.994526  0.664066  0.502701  1
  Mn  Mn8  1  0.335934  0.330460  0.502701  1
  Mn  Mn9  1  0.330460  0.994526  0.002701  1
  O  O10  1  0.666667  0.333333  0.014700  1
  O  O11  1  0.333333  0.666667  0.514700  1
  O  O12  1  0.666667  0.333333  0.521654  1
  O  O13  1  0.333333  0.666667  0.021654  1
  O  O14  1  0.000000  0.000000  0.977229  1
  O  O15  1  0.000000  0.000000  0.477229  1
  O  O16  1  0.331974  0.959930  0.849348  1
  O  O17  1  0.372044  0.331974  0.349348  1
  O  O18  1  0.959930  0.627956  0.349348  1
  O  O19  1  0.040070  0.372044  0.849348  1
  O  O20  1  0.627956  0.668026  0.849348  1
  O  O21  1  0.668026  0.040070  0.349348  1
  O  O22  1  0.299617  0.020901  0.155667  1
  O  O23  1  0.278715  0.299617  0.655667  1
  O  O24  1  0.020901  0.721285  0.655667  1
  O  O25  1  0.979099  0.278715  0.155667  1
  O  O26  1  0.721285  0.700383  0.155667  1
  O  O27  1  0.700383  0.979099  0.655667  1
