# generated using pymatgen
data_MgSn2(PO4)2
_symmetry_space_group_name_H-M   'P 1'
_cell_length_a   5.32150650
_cell_length_b   9.62475668
_cell_length_c   16.34430493
_cell_angle_alpha   87.48229089
_cell_angle_beta   80.64031913
_cell_angle_gamma   74.01469071
_symmetry_Int_Tables_number   1
_chemical_formula_structural   MgSn2(PO4)2
_chemical_formula_sum   'Mg4 Sn8 P8 O32'
_cell_volume   794.04209396
_cell_formula_units_Z   4
loop_
 _symmetry_equiv_pos_site_id
 _symmetry_equiv_pos_as_xyz
  1  'x, y, z'
loop_
 _atom_site_type_symbol
 _atom_site_label
 _atom_site_symmetry_multiplicity
 _atom_site_fract_x
 _atom_site_fract_y
 _atom_site_fract_z
 _atom_site_occupancy
  Mg  Mg0  1  0.377618  0.852533  0.844980  1
  Mg  Mg1  1  0.077112  0.646509  0.654570  1
  Mg  Mg2  1  0.922432  0.353680  0.343730  1
  Mg  Mg3  1  0.620272  0.145944  0.154748  1
  Sn  Sn4  1  0.196227  0.197275  0.987534  1
  Sn  Sn5  1  0.383830  0.299622  0.511553  1
  Sn  Sn6  1  0.802223  0.796940  0.011612  1
  Sn  Sn7  1  0.497960  0.495686  0.999256  1
  Sn  Sn8  1  0.615281  0.701033  0.488105  1
  Sn  Sn9  1  0.650101  0.750481  0.251030  1
  Sn  Sn10  1  0.348330  0.249427  0.749721  1
  Sn  Sn11  1  0.997227  0.004174  0.501318  1
  P  P12  1  0.090518  0.587186  0.861740  1
  P  P13  1  0.697467  0.437802  0.621764  1
  P  P14  1  0.907611  0.412846  0.137124  1
  P  P15  1  0.241628  0.937518  0.121727  1
  P  P16  1  0.454626  0.086772  0.361857  1
  P  P17  1  0.542793  0.912822  0.638051  1
  P  P18  1  0.304400  0.559568  0.377713  1
  P  P19  1  0.757188  0.060620  0.877558  1
  O  O20  1  0.740051  0.318566  0.106766  1
  O  O21  1  0.631284  0.929109  0.900361  1
  O  O22  1  0.833389  0.818568  0.606447  1
  O  O23  1  0.754122  0.320034  0.552668  1
  O  O24  1  0.179118  0.376969  0.073383  1
  O  O25  1  0.606130  0.381186  0.707563  1
  O  O26  1  0.627250  0.178196  0.946789  1
  O  O27  1  0.943369  0.990362  0.121839  1
  O  O28  1  0.249648  0.677049  0.446566  1
  O  O29  1  0.462902  0.569327  0.599047  1
  O  O30  1  0.763017  0.573861  0.126199  1
  O  O31  1  0.556037  0.129332  0.274535  1
  O  O32  1  0.367455  0.069328  0.098710  1
  O  O33  1  0.943575  0.490495  0.620949  1
  O  O34  1  0.250025  0.683957  0.893807  1
  O  O35  1  0.242670  0.427091  0.873138  1
  O  O36  1  0.036494  0.630915  0.774303  1
  O  O37  1  0.369033  0.820334  0.052489  1
  O  O38  1  0.540734  0.073817  0.627008  1
  O  O39  1  0.445340  0.867897  0.725211  1
  O  O40  1  0.056614  0.508211  0.378868  1
  O  O41  1  0.366657  0.878589  0.575270  1
  O  O42  1  0.055175  0.008905  0.877948  1
  O  O43  1  0.306098  0.881415  0.207409  1
  O  O44  1  0.538006  0.427244  0.400317  1
  O  O45  1  0.164842  0.182886  0.392291  1
  O  O46  1  0.967160  0.367693  0.223895  1
  O  O47  1  0.630041  0.120791  0.424985  1
  O  O48  1  0.816622  0.619935  0.923958  1
  O  O49  1  0.694450  0.117077  0.791809  1
  O  O50  1  0.398096  0.614460  0.291596  1
  O  O51  1  0.452509  0.926532  0.373865  1
