# generated using pymatgen
data_MgCr4O8
_symmetry_space_group_name_H-M   'P 1'
_cell_length_a   2.97906165
_cell_length_b   7.23133203
_cell_length_c   7.33996023
_cell_angle_alpha   80.13580956
_cell_angle_beta   78.28769490
_cell_angle_gamma   78.11387848
_symmetry_Int_Tables_number   1
_chemical_formula_structural   MgCr4O8
_chemical_formula_sum   'Mg1 Cr4 O8'
_cell_volume   150.11961717
_cell_formula_units_Z   1
loop_
 _symmetry_equiv_pos_site_id
 _symmetry_equiv_pos_as_xyz
  1  'x, y, z'
loop_
 _atom_site_type_symbol
 _atom_site_label
 _atom_site_symmetry_multiplicity
 _atom_site_fract_x
 _atom_site_fract_y
 _atom_site_fract_z
 _atom_site_occupancy
  Mg  Mg0  1  0.334430  0.132451  0.198876  1
  Cr  Cr1  1  0.633958  0.168574  0.563628  1
  Cr  Cr2  1  0.140928  0.511502  0.206779  1
  Cr  Cr3  1  0.841258  0.481205  0.836555  1
  Cr  Cr4  1  0.349718  0.804862  0.495928  1
  O  O5  1  0.857632  0.668126  0.616661  1
  O  O6  1  0.455989  0.332489  0.755521  1
  O  O7  1  0.533248  0.649380  0.284253  1
  O  O8  1  0.141854  0.304579  0.411854  1
  O  O9  1  0.167694  0.005780  0.658850  1
  O  O10  1  0.786059  0.328739  0.099278  1
  O  O11  1  0.834539  0.979346  0.351705  1
  O  O12  1  0.220174  0.609076  0.950757  1
