# generated using pymatgen
data_SiNiO4
_symmetry_space_group_name_H-M   'P 1'
_cell_length_a   10.02551601
_cell_length_b   10.02551555
_cell_length_c   10.02551570
_cell_angle_alpha   109.47122303
_cell_angle_beta   109.47122214
_cell_angle_gamma   109.47122012
_symmetry_Int_Tables_number   1
_chemical_formula_structural   SiNiO4
_chemical_formula_sum   'Si12 Ni12 O48'
_cell_volume   775.70798609
_cell_formula_units_Z   12
loop_
 _symmetry_equiv_pos_site_id
 _symmetry_equiv_pos_as_xyz
  1  'x, y, z'
loop_
 _atom_site_type_symbol
 _atom_site_label
 _atom_site_symmetry_multiplicity
 _atom_site_fract_x
 _atom_site_fract_y
 _atom_site_fract_z
 _atom_site_occupancy
  Si  Si0  1  0.250000  0.125000  0.875000  1
  Si  Si1  1  0.875000  0.250000  0.125000  1
  Si  Si2  1  0.625000  0.750001  0.375000  1
  Si  Si3  1  0.250000  0.625000  0.375001  1
  Si  Si4  1  0.375000  0.625000  0.750000  1
  Si  Si5  1  0.750000  0.375000  0.625000  1
  Si  Si6  1  0.875000  0.125000  0.750000  1
  Si  Si7  1  0.125000  0.750001  0.875000  1
  Si  Si8  1  0.125000  0.875001  0.250000  1
  Si  Si9  1  0.625000  0.375000  0.250000  1
  Si  Si10  1  0.375000  0.250000  0.625000  1
  Si  Si11  1  0.750000  0.875001  0.125000  1
  Ni  Ni12  1  0.250000  0.875001  0.625000  1
  Ni  Ni13  1  0.875000  0.625000  0.250000  1
  Ni  Ni14  1  0.625001  0.875001  0.750001  1
  Ni  Ni15  1  0.875001  0.750001  0.625001  1
  Ni  Ni16  1  0.625000  0.250000  0.875000  1
  Ni  Ni17  1  0.750000  0.625000  0.875000  1
  Ni  Ni18  1  0.750000  0.125000  0.375000  1
  Ni  Ni19  1  0.125000  0.375000  0.750000  1
  Ni  Ni20  1  0.375000  0.125000  0.250000  1
  Ni  Ni21  1  0.125000  0.250000  0.375000  1
  Ni  Ni22  1  0.375000  0.750001  0.125000  1
  Ni  Ni23  1  0.250000  0.375000  0.125000  1
  O  O24  1  0.270813  0.467068  0.368730  1
  O  O25  1  0.032932  0.303745  0.901662  1
  O  O26  1  0.131270  0.598338  0.902083  1
  O  O27  1  0.229186  0.597917  0.196255  1
  O  O28  1  0.229186  0.131269  0.032931  1
  O  O29  1  0.597916  0.196254  0.229186  1
  O  O30  1  0.598337  0.196254  0.467068  1
  O  O31  1  0.196255  0.229186  0.597918  1
  O  O32  1  0.901663  0.368730  0.597917  1
  O  O33  1  0.303746  0.902083  0.270814  1
  O  O34  1  0.902083  0.270814  0.303746  1
  O  O35  1  0.032932  0.229186  0.131269  1
  O  O36  1  0.196255  0.467068  0.598338  1
  O  O37  1  0.597917  0.901663  0.368731  1
  O  O38  1  0.131269  0.032931  0.229186  1
  O  O39  1  0.467068  0.598338  0.196254  1
  O  O40  1  0.368730  0.597917  0.901662  1
  O  O41  1  0.901662  0.032931  0.303745  1
  O  O42  1  0.598337  0.902083  0.131270  1
  O  O43  1  0.098337  0.631269  0.402083  1
  O  O44  1  0.467068  0.368730  0.270813  1
  O  O45  1  0.368730  0.270814  0.467068  1
  O  O46  1  0.303746  0.901663  0.032932  1
  O  O47  1  0.270813  0.303745  0.902082  1
  O  O48  1  0.729186  0.532931  0.631269  1
  O  O49  1  0.967068  0.696254  0.098337  1
  O  O50  1  0.868731  0.401663  0.097917  1
  O  O51  1  0.770814  0.402083  0.803746  1
  O  O52  1  0.770813  0.868731  0.967069  1
  O  O53  1  0.402083  0.803745  0.770813  1
  O  O54  1  0.401663  0.803745  0.532931  1
  O  O55  1  0.803746  0.770814  0.402083  1
  O  O56  1  0.729186  0.696254  0.097917  1
  O  O57  1  0.696255  0.098338  0.967068  1
  O  O58  1  0.631269  0.729187  0.532932  1
  O  O59  1  0.532932  0.631269  0.729186  1
  O  O60  1  0.097917  0.868731  0.401662  1
  O  O61  1  0.401662  0.097916  0.868730  1
  O  O62  1  0.098338  0.967068  0.696254  1
  O  O63  1  0.631270  0.402083  0.098337  1
  O  O64  1  0.532932  0.401663  0.803746  1
  O  O65  1  0.868731  0.967068  0.770814  1
  O  O66  1  0.402083  0.098338  0.631270  1
  O  O67  1  0.803745  0.532931  0.401663  1
  O  O68  1  0.967068  0.770814  0.868731  1
  O  O69  1  0.097917  0.729187  0.696255  1
  O  O70  1  0.696254  0.097916  0.729186  1
  O  O71  1  0.902083  0.131269  0.598337  1
