# generated using pymatgen
data_Ca(CoS2)4
_symmetry_space_group_name_H-M   'P 1'
_cell_length_a   6.82221637
_cell_length_b   6.94503419
_cell_length_c   6.94503492
_cell_angle_alpha   60.00000091
_cell_angle_beta   59.40266610
_cell_angle_gamma   59.40266090
_symmetry_Int_Tables_number   1
_chemical_formula_structural   Ca(CoS2)4
_chemical_formula_sum   'Ca1 Co4 S8'
_cell_volume   230.55715438
_cell_formula_units_Z   1
loop_
 _symmetry_equiv_pos_site_id
 _symmetry_equiv_pos_as_xyz
  1  'x, y, z'
loop_
 _atom_site_type_symbol
 _atom_site_label
 _atom_site_symmetry_multiplicity
 _atom_site_fract_x
 _atom_site_fract_y
 _atom_site_fract_z
 _atom_site_occupancy
  Ca  Ca0  1  0.500000  0.000000  0.000000  1
  Co  Co1  1  0.000000  0.500000  0.500000  1
  Co  Co2  1  0.500000  0.500000  0.000000  1
  Co  Co3  1  0.500000  0.500000  0.500000  1
  Co  Co4  1  0.500000  0.000000  0.500000  1
  S  S5  1  0.261944  0.271598  0.271598  1
  S  S6  1  0.261944  0.271598  0.694861  1
  S  S7  1  0.261944  0.694861  0.271598  1
  S  S8  1  0.699817  0.266727  0.266727  1
  S  S9  1  0.300183  0.733273  0.733273  1
  S  S10  1  0.738056  0.728402  0.305139  1
  S  S11  1  0.738056  0.305139  0.728402  1
  S  S12  1  0.738056  0.728402  0.728402  1
