# generated using pymatgen
data_Ba2YFe3O8
_symmetry_space_group_name_H-M   'P 1'
_cell_length_a   3.96963365
_cell_length_b   3.96963446
_cell_length_c   12.13115757
_cell_angle_alpha   89.99994863
_cell_angle_beta   89.99986874
_cell_angle_gamma   89.99993851
_symmetry_Int_Tables_number   1
_chemical_formula_structural   Ba2YFe3O8
_chemical_formula_sum   'Ba2 Y1 Fe3 O8'
_cell_volume   191.16271464
_cell_formula_units_Z   1
loop_
 _symmetry_equiv_pos_site_id
 _symmetry_equiv_pos_as_xyz
  1  'x, y, z'
loop_
 _atom_site_type_symbol
 _atom_site_label
 _atom_site_symmetry_multiplicity
 _atom_site_fract_x
 _atom_site_fract_y
 _atom_site_fract_z
 _atom_site_occupancy
  Ba  Ba0  1  0.500002  0.500001  0.163261  1
  Ba  Ba1  1  0.499997  0.499998  0.836705  1
  Y  Y2  1  0.500000  0.500003  0.500016  1
  Fe  Fe3  1  0.999995  -0.000004  0.340461  1
  Fe  Fe4  1  0.000010  0.999987  0.000087  1
  Fe  Fe5  1  0.999997  0.000004  0.659516  1
  O  O6  1  0.000005  0.500004  0.384301  1
  O  O7  1  0.500000  0.000007  0.384302  1
  O  O8  1  0.500003  0.000001  0.000002  1
  O  O9  1  0.000002  0.000003  0.185340  1
  O  O10  1  0.000001  0.500001  0.615681  1
  O  O11  1  0.499998  -0.000001  0.615680  1
  O  O12  1  0.999995  0.999998  0.814647  1
  O  O13  1  0.999995  0.499999  0.000002  1
