# generated using pymatgen
data_CaSbF5
_symmetry_space_group_name_H-M   'P 1'
_cell_length_a   5.96985530
_cell_length_b   5.99815494
_cell_length_c   8.38870770
_cell_angle_alpha   97.37903260
_cell_angle_beta   111.81849385
_cell_angle_gamma   107.68907598
_symmetry_Int_Tables_number   1
_chemical_formula_structural   CaSbF5
_chemical_formula_sum   'Ca2 Sb2 F10'
_cell_volume   255.59722816
_cell_formula_units_Z   2
loop_
 _symmetry_equiv_pos_site_id
 _symmetry_equiv_pos_as_xyz
  1  'x, y, z'
loop_
 _atom_site_type_symbol
 _atom_site_label
 _atom_site_symmetry_multiplicity
 _atom_site_fract_x
 _atom_site_fract_y
 _atom_site_fract_z
 _atom_site_occupancy
  Ca  Ca0  1  0.282240  0.529632  0.749576  1
  Ca  Ca1  1  0.721342  0.469188  0.248764  1
  Sb  Sb2  1  0.008178  0.001499  0.001796  1
  Sb  Sb3  1  0.498455  -0.004922  0.499806  1
  F  F4  1  0.378182  0.132411  0.245152  1
  F  F5  1  0.622729  0.875453  0.742535  1
  F  F6  1  0.602318  0.731999  0.376147  1
  F  F7  1  0.866931  0.223741  0.130761  1
  F  F8  1  0.743076  0.680297  0.040144  1
  F  F9  1  0.141177  0.690678  0.462515  1
  F  F10  1  0.257991  0.316690  0.958047  1
  F  F11  1  0.858485  0.292081  0.546306  1
  F  F12  1  0.147701  0.778097  0.875109  1
  F  F13  1  0.411498  0.266625  0.631537  1
