# generated using pymatgen
data_ZnBi3P3O13
_symmetry_space_group_name_H-M   'P 1'
_cell_length_a   7.14070985
_cell_length_b   8.47604859
_cell_length_c   11.00260036
_cell_angle_alpha   101.25021497
_cell_angle_beta   90.00000000
_cell_angle_gamma   90.00000000
_symmetry_Int_Tables_number   1
_chemical_formula_structural   ZnBi3P3O13
_chemical_formula_sum   'Zn2 Bi6 P6 O26'
_cell_volume   653.13623471
_cell_formula_units_Z   2
loop_
 _symmetry_equiv_pos_site_id
 _symmetry_equiv_pos_as_xyz
  1  'x, y, z'
loop_
 _atom_site_type_symbol
 _atom_site_label
 _atom_site_symmetry_multiplicity
 _atom_site_fract_x
 _atom_site_fract_y
 _atom_site_fract_z
 _atom_site_occupancy
  Zn  Zn0  1  0.750000  0.561678  0.157627  1
  Zn  Zn1  1  0.250000  0.438321  0.842373  1
  Bi  Bi2  1  0.250000  0.357312  0.233388  1
  Bi  Bi3  1  0.750000  0.642688  0.766612  1
  Bi  Bi4  1  0.250000  0.800869  0.432918  1
  Bi  Bi5  1  0.500000  -0.000000  -0.000000  1
  Bi  Bi6  1  0.750000  0.199131  0.567082  1
  Bi  Bi7  1  -0.000000  -0.000000  -0.000000  1
  P  P8  1  0.250000  0.229347  0.524505  1
  P  P9  1  0.750000  0.770653  0.475495  1
  P  P10  1  0.250000  0.721154  0.759809  1
  P  P11  1  0.750000  0.278846  0.240191  1
  P  P12  1  0.750000  0.325018  0.900539  1
  P  P13  1  0.250000  0.674982  0.099461  1
  O  O14  1  0.750000  0.355593  0.764215  1
  O  O15  1  0.574900  0.750961  0.389704  1
  O  O16  1  0.250000  0.764369  0.633218  1
  O  O17  1  0.566809  0.236168  0.919908  1
  O  O18  1  0.750000  0.643293  0.560366  1
  O  O19  1  0.750000  0.877152  0.888818  1
  O  O20  1  0.250000  0.356707  0.439634  1
  O  O21  1  0.066809  0.763832  0.080092  1
  O  O22  1  0.250000  0.060620  0.434036  1
  O  O23  1  0.750000  0.939380  0.565964  1
  O  O24  1  0.081590  0.610092  0.782146  1
  O  O25  1  0.250000  0.122848  0.111182  1
  O  O26  1  0.581590  0.389908  0.217854  1
  O  O27  1  0.750000  0.502743  0.978479  1
  O  O28  1  0.750000  0.235631  0.366782  1
  O  O29  1  0.433191  0.763832  0.080092  1
  O  O30  1  0.925100  0.750961  0.389704  1
  O  O31  1  0.425100  0.249039  0.610296  1
  O  O32  1  0.418410  0.610092  0.782146  1
  O  O33  1  0.250000  0.644407  0.235785  1
  O  O34  1  0.750000  0.119923  0.139925  1
  O  O35  1  0.250000  0.880077  0.860075  1
  O  O36  1  0.918410  0.389908  0.217854  1
  O  O37  1  0.933191  0.236168  0.919908  1
  O  O38  1  0.074900  0.249039  0.610296  1
  O  O39  1  0.250000  0.497257  0.021521  1
