# generated using pymatgen
data_CaCo5O7
_symmetry_space_group_name_H-M   'P 1'
_cell_length_a   3.03913143
_cell_length_b   5.28486947
_cell_length_c   17.55299123
_cell_angle_alpha   90.00000000
_cell_angle_beta   90.00000000
_cell_angle_gamma   106.71021976
_symmetry_Int_Tables_number   1
_chemical_formula_structural   CaCo5O7
_chemical_formula_sum   'Ca2 Co10 O14'
_cell_volume   270.02045675
_cell_formula_units_Z   2
loop_
 _symmetry_equiv_pos_site_id
 _symmetry_equiv_pos_as_xyz
  1  'x, y, z'
loop_
 _atom_site_type_symbol
 _atom_site_label
 _atom_site_symmetry_multiplicity
 _atom_site_fract_x
 _atom_site_fract_y
 _atom_site_fract_z
 _atom_site_occupancy
  Ca  Ca0  1  0.804061  0.608121  0.750000  1
  Ca  Ca1  1  0.195940  0.391877  0.250000  1
  Co  Co2  1  0.281374  0.562745  0.572609  1
  Co  Co3  1  0.447460  0.894919  0.149868  1
  Co  Co4  1  -0.000000  -0.000000  0.500000  1
  Co  Co5  1  -0.000000  -0.000000  0.000000  1
  Co  Co6  1  0.552540  0.105080  0.850133  1
  Co  Co7  1  0.718626  0.437254  0.427391  1
  Co  Co8  1  0.718626  0.437254  0.072609  1
  Co  Co9  1  0.281374  0.562745  0.927391  1
  Co  Co10  1  0.552540  0.105080  0.649867  1
  Co  Co11  1  0.447460  0.894919  0.350133  1
  O  O12  1  0.636007  0.272013  0.961780  1
  O  O13  1  0.363994  0.727988  0.038220  1
  O  O14  1  0.363994  0.727988  0.461780  1
  O  O15  1  0.636007  0.272013  0.538220  1
  O  O16  1  0.180333  0.360670  0.828898  1
  O  O17  1  0.819667  0.639330  0.171102  1
  O  O18  1  0.819667  0.639330  0.328899  1
  O  O19  1  0.180333  0.360670  0.671102  1
  O  O20  1  0.922339  0.844676  0.889690  1
  O  O21  1  0.077661  0.155324  0.110310  1
  O  O22  1  0.077661  0.155324  0.389690  1
  O  O23  1  0.922339  0.844676  0.610310  1
  O  O24  1  0.480209  0.960418  0.750000  1
  O  O25  1  0.519792  0.039584  0.250000  1
