# generated using pymatgen
data_CaCu2(Si2O5)4
_symmetry_space_group_name_H-M   'P 1'
_cell_length_a   7.27088615
_cell_length_b   7.27088615
_cell_length_c   15.45834912
_cell_angle_alpha   90.00000000
_cell_angle_beta   90.00000000
_cell_angle_gamma   90.00000000
_symmetry_Int_Tables_number   1
_chemical_formula_structural   CaCu2(Si2O5)4
_chemical_formula_sum   'Ca2 Cu4 Si16 O40'
_cell_volume   817.21776731
_cell_formula_units_Z   2
loop_
 _symmetry_equiv_pos_site_id
 _symmetry_equiv_pos_as_xyz
  1  'x, y, z'
loop_
 _atom_site_type_symbol
 _atom_site_label
 _atom_site_symmetry_multiplicity
 _atom_site_fract_x
 _atom_site_fract_y
 _atom_site_fract_z
 _atom_site_occupancy
  Ca  Ca0  1  0.750000  0.250000  0.500000  1
  Ca  Ca1  1  0.250000  0.750000  0.000000  1
  Cu  Cu2  1  0.250000  0.250000  0.587082  1
  Cu  Cu3  1  0.750000  0.750000  0.912918  1
  Cu  Cu4  1  0.750000  0.750000  0.412918  1
  Cu  Cu5  1  0.250000  0.250000  0.087082  1
  Si  Si6  1  0.929828  0.504349  0.648871  1
  Si  Si7  1  0.570172  0.995651  0.648871  1
  Si  Si8  1  0.999382  0.429066  0.853478  1
  Si  Si9  1  0.499382  0.570934  0.646522  1
  Si  Si10  1  0.000618  0.929066  0.646522  1
  Si  Si11  1  0.070172  0.004349  0.851129  1
  Si  Si12  1  0.429828  0.495651  0.851129  1
  Si  Si13  1  0.500618  0.070934  0.853478  1
  Si  Si14  1  0.070934  0.500618  0.353478  1
  Si  Si15  1  0.429066  0.999382  0.353478  1
  Si  Si16  1  0.995651  0.570172  0.148871  1
  Si  Si17  1  0.495651  0.429828  0.351129  1
  Si  Si18  1  0.004349  0.070172  0.351129  1
  Si  Si19  1  0.929066  0.000618  0.146522  1
  Si  Si20  1  0.570934  0.499382  0.146522  1
  Si  Si21  1  0.504349  0.929828  0.148871  1
  O  O22  1  0.011965  0.346434  0.584399  1
  O  O23  1  0.488035  0.153566  0.584399  1
  O  O24  1  0.846773  0.519115  0.916113  1
  O  O25  1  0.346773  0.480885  0.583887  1
  O  O26  1  0.153227  0.019115  0.583887  1
  O  O27  1  0.988035  0.846434  0.915601  1
  O  O28  1  0.511965  0.653566  0.915601  1
  O  O29  1  0.653227  0.980885  0.916113  1
  O  O30  1  0.980885  0.653227  0.416113  1
  O  O31  1  0.519115  0.846773  0.416113  1
  O  O32  1  0.153566  0.488035  0.084399  1
  O  O33  1  0.653566  0.511965  0.415601  1
  O  O34  1  0.846434  0.988035  0.415601  1
  O  O35  1  0.019115  0.153227  0.083887  1
  O  O36  1  0.480885  0.346773  0.083887  1
  O  O37  1  0.990562  0.291577  0.375301  1
  O  O38  1  0.346434  0.011965  0.084399  1
  O  O39  1  0.498464  0.790455  0.627984  1
  O  O40  1  0.208423  0.509438  0.875301  1
  O  O41  1  0.708423  0.490562  0.624699  1
  O  O42  1  0.791577  0.009438  0.624699  1
  O  O43  1  0.998464  0.209545  0.872016  1
  O  O44  1  0.501536  0.290455  0.872016  1
  O  O45  1  0.291577  0.990562  0.875301  1
  O  O46  1  0.459342  0.961539  0.250355  1
  O  O47  1  0.540658  0.461540  0.249645  1
  O  O48  1  0.959341  0.038460  0.249645  1
  O  O49  1  0.040658  0.538460  0.250355  1
  O  O50  1  0.538460  0.040658  0.750355  1
  O  O51  1  0.461540  0.540658  0.749645  1
  O  O52  1  0.038460  0.959341  0.749645  1
  O  O53  1  0.961539  0.459342  0.750355  1
  O  O54  1  0.709545  0.001536  0.127984  1
  O  O55  1  0.490562  0.708423  0.124699  1
  O  O56  1  0.009438  0.791577  0.124699  1
  O  O57  1  0.209545  0.998464  0.372016  1
  O  O58  1  0.290455  0.501536  0.372016  1
  O  O59  1  0.790455  0.498464  0.127984  1
  O  O60  1  0.509438  0.208423  0.375301  1
  O  O61  1  0.001536  0.709545  0.627984  1
