# generated using pymatgen
data_CaCo3P3O13
_symmetry_space_group_name_H-M   'P 1'
_cell_length_a   6.36167255
_cell_length_b   7.52329360
_cell_length_c   10.22107275
_cell_angle_alpha   100.05923532
_cell_angle_beta   90.00000000
_cell_angle_gamma   90.00000000
_symmetry_Int_Tables_number   1
_chemical_formula_structural   CaCo3P3O13
_chemical_formula_sum   'Ca2 Co6 P6 O26'
_cell_volume   481.66806285
_cell_formula_units_Z   2
loop_
 _symmetry_equiv_pos_site_id
 _symmetry_equiv_pos_as_xyz
  1  'x, y, z'
loop_
 _atom_site_type_symbol
 _atom_site_label
 _atom_site_symmetry_multiplicity
 _atom_site_fract_x
 _atom_site_fract_y
 _atom_site_fract_z
 _atom_site_occupancy
  Ca  Ca0  1  0.750000  0.662026  0.195313  1
  Ca  Ca1  1  0.250000  0.337974  0.804687  1
  Co  Co2  1  0.250000  0.348917  0.198299  1
  Co  Co3  1  0.750000  0.651083  0.801701  1
  Co  Co4  1  0.250000  0.790642  0.438637  1
  Co  Co5  1  0.500000  -0.000000  0.000000  1
  Co  Co6  1  0.750000  0.209358  0.561363  1
  Co  Co7  1  0.000000  -0.000000  0.000000  1
  P  P8  1  0.250000  0.215760  0.485503  1
  P  P9  1  0.750000  0.784240  0.514497  1
  P  P10  1  0.250000  0.740682  0.763704  1
  P  P11  1  0.750000  0.259318  0.236296  1
  P  P12  1  0.750000  0.314164  0.885334  1
  P  P13  1  0.250000  0.685836  0.114666  1
  O  O14  1  0.750000  0.359172  0.742023  1
  O  O15  1  0.559804  0.752686  0.418478  1
  O  O16  1  0.250000  0.786800  0.623644  1
  O  O17  1  0.547625  0.206279  0.904380  1
  O  O18  1  0.750000  0.654874  0.614354  1
  O  O19  1  0.750000  0.876740  0.911256  1
  O  O20  1  0.250000  0.345126  0.385646  1
  O  O21  1  0.047625  0.793721  0.095620  1
  O  O22  1  0.250000  0.019500  0.403763  1
  O  O23  1  0.750000  0.980500  0.596237  1
  O  O24  1  0.060701  0.622179  0.790334  1
  O  O25  1  0.250000  0.123260  0.088744  1
  O  O26  1  0.560701  0.377821  0.209666  1
  O  O27  1  0.750000  0.507733  0.967550  1
  O  O28  1  0.750000  0.213200  0.376356  1
  O  O29  1  0.452375  0.793721  0.095620  1
  O  O30  1  0.940196  0.752686  0.418478  1
  O  O31  1  0.440196  0.247314  0.581522  1
  O  O32  1  0.439299  0.622179  0.790334  1
  O  O33  1  0.250000  0.640828  0.257977  1
  O  O34  1  0.750000  0.078833  0.133642  1
  O  O35  1  0.250000  0.921167  0.866358  1
  O  O36  1  0.939299  0.377821  0.209666  1
  O  O37  1  0.952375  0.206279  0.904380  1
  O  O38  1  0.059804  0.247314  0.581522  1
  O  O39  1  0.250000  0.492268  0.032450  1
