# generated using pymatgen
data_LaZnCr2O6
_symmetry_space_group_name_H-M   'P 1'
_cell_length_a   5.33330149
_cell_length_b   5.40382610
_cell_length_c   7.79589531
_cell_angle_alpha   90.00000000
_cell_angle_beta   90.20586997
_cell_angle_gamma   90.00000000
_symmetry_Int_Tables_number   1
_chemical_formula_structural   LaZnCr2O6
_chemical_formula_sum   'La2 Zn2 Cr4 O12'
_cell_volume   224.67807485
_cell_formula_units_Z   2
loop_
 _symmetry_equiv_pos_site_id
 _symmetry_equiv_pos_as_xyz
  1  'x, y, z'
loop_
 _atom_site_type_symbol
 _atom_site_label
 _atom_site_symmetry_multiplicity
 _atom_site_fract_x
 _atom_site_fract_y
 _atom_site_fract_z
 _atom_site_occupancy
  La  La0  1  0.005064  0.963120  0.749626  1
  La  La1  1  0.505064  0.536880  0.249626  1
  Zn  Zn2  1  0.492004  0.472122  0.747570  1
  Zn  Zn3  1  0.992004  0.027878  0.247570  1
  Cr  Cr4  1  0.496688  0.004945  0.501026  1
  Cr  Cr5  1  0.996688  0.495055  0.001026  1
  Cr  Cr6  1  0.494738  0.010145  0.998281  1
  Cr  Cr7  1  0.994738  0.489855  0.498281  1
  O  O8  1  0.076892  0.445529  0.251026  1
  O  O9  1  0.223390  0.214926  0.949881  1
  O  O10  1  0.211777  0.225229  0.552232  1
  O  O11  1  0.317814  0.699291  0.943909  1
  O  O12  1  0.306554  0.692020  0.557837  1
  O  O13  1  0.375076  0.978329  0.248614  1
  O  O14  1  0.576892  0.054471  0.751026  1
  O  O15  1  0.723390  0.285074  0.449881  1
  O  O16  1  0.711777  0.274771  0.052232  1
  O  O17  1  0.817814  0.800709  0.443909  1
  O  O18  1  0.806554  0.807980  0.057837  1
  O  O19  1  0.875076  0.521671  0.748614  1
