# generated using pymatgen
data_MgP2WO7
_symmetry_space_group_name_H-M   'P 1'
_cell_length_a   5.57943526
_cell_length_b   6.68262963
_cell_length_c   8.00382719
_cell_angle_alpha   80.33392344
_cell_angle_beta   88.60348547
_cell_angle_gamma   71.31756130
_symmetry_Int_Tables_number   1
_chemical_formula_structural   MgP2WO7
_chemical_formula_sum   'Mg2 P4 W2 O14'
_cell_volume   278.54888126
_cell_formula_units_Z   2
loop_
 _symmetry_equiv_pos_site_id
 _symmetry_equiv_pos_as_xyz
  1  'x, y, z'
loop_
 _atom_site_type_symbol
 _atom_site_label
 _atom_site_symmetry_multiplicity
 _atom_site_fract_x
 _atom_site_fract_y
 _atom_site_fract_z
 _atom_site_occupancy
  Mg  Mg0  1  0.344316  0.660765  0.627333  1
  Mg  Mg1  1  0.655685  0.339235  0.372667  1
  P  P2  1  0.171581  0.671893  0.118820  1
  P  P3  1  0.828420  0.328106  0.881180  1
  P  P4  1  0.203902  0.215851  0.610829  1
  P  P5  1  0.796098  0.784148  0.389171  1
  W  W6  1  0.294002  0.148286  0.172056  1
  W  W7  1  0.705998  0.851713  0.827944  1
  O  O8  1  0.088799  0.694793  0.933920  1
  O  O9  1  0.911201  0.305207  0.066080  1
  O  O10  1  0.269043  0.842278  0.160703  1
  O  O11  1  0.730958  0.157722  0.839296  1
  O  O12  1  0.368329  0.448517  0.182429  1
  O  O13  1  0.631671  0.551483  0.817571  1
  O  O14  1  0.615538  0.654603  0.445473  1
  O  O15  1  0.384462  0.345397  0.554526  1
  O  O16  1  0.999334  0.237686  0.481967  1
  O  O17  1  0.000667  0.762313  0.518033  1
  O  O18  1  0.081916  0.321965  0.774406  1
  O  O19  1  0.652862  0.025339  0.322698  1
  O  O20  1  0.347139  0.974660  0.677302  1
  O  O21  1  0.918084  0.678035  0.225594  1
