# generated using pymatgen
data_TiMnZn(PO4)3
_symmetry_space_group_name_H-M   'P 1'
_cell_length_a   8.55560187
_cell_length_b   8.55560197
_cell_length_c   8.55560251
_cell_angle_alpha   60.64941176
_cell_angle_beta   60.64941548
_cell_angle_gamma   60.64941655
_symmetry_Int_Tables_number   1
_chemical_formula_structural   TiMnZn(PO4)3
_chemical_formula_sum   'Ti2 Mn2 Zn2 P6 O24'
_cell_volume   449.32260363
_cell_formula_units_Z   2
loop_
 _symmetry_equiv_pos_site_id
 _symmetry_equiv_pos_as_xyz
  1  'x, y, z'
loop_
 _atom_site_type_symbol
 _atom_site_label
 _atom_site_symmetry_multiplicity
 _atom_site_fract_x
 _atom_site_fract_y
 _atom_site_fract_z
 _atom_site_occupancy
  Ti  Ti0  1  0.144534  0.144534  0.144534  1
  Ti  Ti1  1  0.644534  0.644534  0.644534  1
  Mn  Mn2  1  0.355528  0.355528  0.355528  1
  Mn  Mn3  1  0.855528  0.855528  0.855528  1
  Zn  Zn4  1  0.997667  0.997667  0.997667  1
  Zn  Zn5  1  0.497667  0.497667  0.497667  1
  P  P6  1  0.045285  0.455410  0.750921  1
  P  P7  1  0.455410  0.750921  0.045285  1
  P  P8  1  0.750921  0.045285  0.455410  1
  P  P9  1  0.250921  0.955410  0.545285  1
  P  P10  1  0.545285  0.250921  0.955410  1
  P  P11  1  0.955410  0.545285  0.250921  1
  O  O12  1  0.110732  0.509995  0.313695  1
  O  O13  1  0.313695  0.110732  0.509995  1
  O  O14  1  0.053907  0.259031  0.914195  1
  O  O15  1  0.509995  0.313695  0.110732  1
  O  O16  1  0.009995  0.610732  0.813695  1
  O  O17  1  0.240520  0.437040  0.590399  1
  O  O18  1  0.259031  0.914195  0.053907  1
  O  O19  1  0.437040  0.590399  0.240520  1
  O  O20  1  0.186497  0.004270  0.380370  1
  O  O21  1  0.590399  0.240520  0.437040  1
  O  O22  1  0.090399  0.937040  0.740520  1
  O  O23  1  0.380370  0.186497  0.004270  1
  O  O24  1  0.610732  0.813695  0.009995  1
  O  O25  1  0.914195  0.053907  0.259031  1
  O  O26  1  0.414195  0.759031  0.553907  1
  O  O27  1  0.813695  0.009995  0.610732  1
  O  O28  1  0.553907  0.414195  0.759031  1
  O  O29  1  0.740520  0.090399  0.937040  1
  O  O30  1  0.759031  0.553907  0.414195  1
  O  O31  1  0.004270  0.380370  0.186497  1
  O  O32  1  0.504270  0.686497  0.880370  1
  O  O33  1  0.937040  0.740520  0.090399  1
  O  O34  1  0.686497  0.880370  0.504270  1
  O  O35  1  0.880370  0.504270  0.686497  1
