# generated using pymatgen
data_TiO2
_symmetry_space_group_name_H-M   'P 1'
_cell_length_a   5.51846712
_cell_length_b   5.51846664
_cell_length_c   5.94631953
_cell_angle_alpha   57.40036212
_cell_angle_beta   57.40036943
_cell_angle_gamma   73.12555904
_symmetry_Int_Tables_number   1
_chemical_formula_structural   TiO2
_chemical_formula_sum   'Ti4 O8'
_cell_volume   128.52257248
_cell_formula_units_Z   4
loop_
 _symmetry_equiv_pos_site_id
 _symmetry_equiv_pos_as_xyz
  1  'x, y, z'
loop_
 _atom_site_type_symbol
 _atom_site_label
 _atom_site_symmetry_multiplicity
 _atom_site_fract_x
 _atom_site_fract_y
 _atom_site_fract_z
 _atom_site_occupancy
  Ti  Ti0  1  0.120245  0.120245  0.879755  1
  Ti  Ti1  1  0.129755  0.129755  0.370245  1
  Ti  Ti2  1  0.625000  0.625000  0.125000  1
  Ti  Ti3  1  0.625000  0.625000  0.625000  1
  O  O4  1  0.320081  0.320081  0.429770  1
  O  O5  1  0.429516  0.819718  0.375384  1
  O  O6  1  0.320081  0.320081  0.930069  1
  O  O7  1  0.819718  0.429516  0.375384  1
  O  O8  1  0.430282  0.820484  0.874616  1
  O  O9  1  0.820484  0.430282  0.874616  1
  O  O10  1  0.929919  0.929919  0.319931  1
  O  O11  1  0.929919  0.929919  0.820230  1
