# generated using pymatgen
data_CaCoAs2O7
_symmetry_space_group_name_H-M   'P 1'
_cell_length_a   7.46493917
_cell_length_b   9.11328572
_cell_length_c   9.46713254
_cell_angle_alpha   90.00000000
_cell_angle_beta   110.63323033
_cell_angle_gamma   90.00000000
_symmetry_Int_Tables_number   1
_chemical_formula_structural   CaCoAs2O7
_chemical_formula_sum   'Ca4 Co4 As8 O28'
_cell_volume   602.73780083
_cell_formula_units_Z   4
loop_
 _symmetry_equiv_pos_site_id
 _symmetry_equiv_pos_as_xyz
  1  'x, y, z'
loop_
 _atom_site_type_symbol
 _atom_site_label
 _atom_site_symmetry_multiplicity
 _atom_site_fract_x
 _atom_site_fract_y
 _atom_site_fract_z
 _atom_site_occupancy
  Ca  Ca0  1  0.257206  0.933425  0.935867  1
  Ca  Ca1  1  0.742794  0.433425  0.564133  1
  Ca  Ca2  1  0.742794  0.066575  0.064132  1
  Ca  Ca3  1  0.257206  0.566575  0.435868  1
  Co  Co4  1  0.804744  0.052782  0.695154  1
  Co  Co5  1  0.195256  0.552782  0.804846  1
  Co  Co6  1  0.195256  0.947218  0.304846  1
  Co  Co7  1  0.804744  0.447218  0.195154  1
  As  As8  1  0.419903  0.239342  0.734191  1
  As  As9  1  0.580097  0.739342  0.765809  1
  As  As10  1  0.580097  0.760658  0.265809  1
  As  As11  1  0.419903  0.260658  0.234190  1
  As  As12  1  0.014666  0.296800  0.953890  1
  As  As13  1  0.985334  0.796800  0.546110  1
  As  As14  1  0.985334  0.703200  0.046110  1
  As  As15  1  0.014666  0.203200  0.453890  1
  O  O16  1  0.850720  0.311236  0.041101  1
  O  O17  1  0.149280  0.811236  0.458899  1
  O  O18  1  0.149280  0.688764  0.958899  1
  O  O19  1  0.850720  0.188764  0.541101  1
  O  O20  1  0.343821  0.417421  0.719636  1
  O  O21  1  0.656179  0.917421  0.780364  1
  O  O22  1  0.656179  0.582579  0.280364  1
  O  O23  1  0.343821  0.082579  0.219636  1
  O  O24  1  0.429237  0.137832  0.887470  1
  O  O25  1  0.570763  0.637832  0.612530  1
  O  O26  1  0.570763  0.862168  0.112530  1
  O  O27  1  0.429237  0.362168  0.387470  1
  O  O28  1  0.245469  0.145709  0.575985  1
  O  O29  1  0.754531  0.645709  0.924015  1
  O  O30  1  0.754531  0.854291  0.424015  1
  O  O31  1  0.245469  0.354291  0.075985  1
  O  O32  1  0.987510  0.088250  0.306138  1
  O  O33  1  0.012490  0.588250  0.193862  1
  O  O34  1  0.012490  0.911750  0.693862  1
  O  O35  1  0.987510  0.411750  0.806138  1
  O  O36  1  0.629224  0.266968  0.200428  1
  O  O37  1  0.370776  0.766968  0.299572  1
  O  O38  1  0.370776  0.733032  0.799572  1
  O  O39  1  0.629224  0.233032  0.700428  1
  O  O40  1  0.005510  0.383641  0.403502  1
  O  O41  1  0.994490  0.883641  0.096498  1
  O  O42  1  0.994490  0.616359  0.596498  1
  O  O43  1  0.005510  0.116359  0.903502  1
