# generated using pymatgen
data_Al(SnO2)2
_symmetry_space_group_name_H-M   'P 1'
_cell_length_a   5.78124088
_cell_length_b   5.59377267
_cell_length_c   7.07662317
_cell_angle_alpha   113.24799458
_cell_angle_beta   114.07762295
_cell_angle_gamma   90.07254792
_symmetry_Int_Tables_number   1
_chemical_formula_structural   Al(SnO2)2
_chemical_formula_sum   'Al2 Sn4 O8'
_cell_volume   188.34699450
_cell_formula_units_Z   2
loop_
 _symmetry_equiv_pos_site_id
 _symmetry_equiv_pos_as_xyz
  1  'x, y, z'
loop_
 _atom_site_type_symbol
 _atom_site_label
 _atom_site_symmetry_multiplicity
 _atom_site_fract_x
 _atom_site_fract_y
 _atom_site_fract_z
 _atom_site_occupancy
  Al  Al0  1  0.873217  0.123217  0.746434  1
  Al  Al1  1  0.126783  0.876783  0.253566  1
  Sn  Sn2  1  0.500000  0.000000  0.000000  1
  Sn  Sn3  1  0.500000  0.500000  0.000000  1
  Sn  Sn4  1  0.000000  0.500000  0.500000  1
  Sn  Sn5  1  0.500000  0.500000  0.500000  1
  O  O6  1  0.719305  0.416575  0.800017  1
  O  O7  1  0.080711  0.883442  0.800017  1
  O  O8  1  0.280695  0.583425  0.199983  1
  O  O9  1  0.919289  0.116558  0.199983  1
  O  O10  1  0.415210  0.087807  0.308227  1
  O  O11  1  0.893017  0.720419  0.308227  1
  O  O12  1  0.106983  0.279581  0.691773  1
  O  O13  1  0.584790  0.912193  0.691773  1
