# generated using pymatgen
data_MnZnF4
_symmetry_space_group_name_H-M   'P 1'
_cell_length_a   5.28853176
_cell_length_b   5.20248066
_cell_length_c   6.47402457
_cell_angle_alpha   115.01777335
_cell_angle_beta   114.86107420
_cell_angle_gamma   90.00415266
_symmetry_Int_Tables_number   1
_chemical_formula_structural   MnZnF4
_chemical_formula_sum   'Mn2 Zn2 F8'
_cell_volume   142.98491331
_cell_formula_units_Z   2
loop_
 _symmetry_equiv_pos_site_id
 _symmetry_equiv_pos_as_xyz
  1  'x, y, z'
loop_
 _atom_site_type_symbol
 _atom_site_label
 _atom_site_symmetry_multiplicity
 _atom_site_fract_x
 _atom_site_fract_y
 _atom_site_fract_z
 _atom_site_occupancy
  Mn  Mn0  1  0.001622  0.502854  0.005019  1
  Mn  Mn1  1  0.500040  0.998708  0.999317  1
  Zn  Zn2  1  0.240610  0.244877  0.503156  1
  Zn  Zn3  1  0.761015  0.756035  0.503493  1
  F  F4  1  0.936775  0.353438  0.258476  1
  F  F5  1  0.676563  0.088479  0.756183  1
  F  F6  1  0.070488  0.648661  0.753127  1
  F  F7  1  0.163839  0.137333  0.739608  1
  F  F8  1  0.328681  0.919115  0.255561  1
  F  F9  1  0.432261  0.415765  0.240580  1
  F  F10  1  0.824141  0.845699  0.247639  1
  F  F11  1  0.567568  0.585269  0.746049  1
