# generated using pymatgen
data_YCoO3
_symmetry_space_group_name_H-M   'P 1'
_cell_length_a   6.16575421
_cell_length_b   6.16575388
_cell_length_c   11.42833168
_cell_angle_alpha   90.00000000
_cell_angle_beta   90.00000000
_cell_angle_gamma   120.00000180
_symmetry_Int_Tables_number   1
_chemical_formula_structural   YCoO3
_chemical_formula_sum   'Y6 Co6 O18'
_cell_volume   376.25809590
_cell_formula_units_Z   6
loop_
 _symmetry_equiv_pos_site_id
 _symmetry_equiv_pos_as_xyz
  1  'x, y, z'
loop_
 _atom_site_type_symbol
 _atom_site_label
 _atom_site_symmetry_multiplicity
 _atom_site_fract_x
 _atom_site_fract_y
 _atom_site_fract_z
 _atom_site_occupancy
  Y  Y0  1  0.666667  0.333333  0.230443  1
  Y  Y1  1  0.333333  0.666667  0.730443  1
  Y  Y2  1  0.666667  0.333333  0.730443  1
  Y  Y3  1  0.333333  0.666667  0.230443  1
  Y  Y4  1  0.000000  0.000000  0.776138  1
  Y  Y5  1  0.000000  0.000000  0.276138  1
  Co  Co6  1  0.665597  0.000000  0.499564  1
  Co  Co7  1  0.665597  0.665597  0.999564  1
  Co  Co8  1  0.000000  0.334403  0.999564  1
  Co  Co9  1  1.000000  0.665597  0.499564  1
  Co  Co10  1  0.334403  0.334403  0.499564  1
  Co  Co11  1  0.334403  0.000000  0.999564  1
  O  O12  1  0.666667  0.333333  0.021926  1
  O  O13  1  0.333333  0.666667  0.521926  1
  O  O14  1  0.666667  0.333333  0.521926  1
  O  O15  1  0.333333  0.666667  0.021926  1
  O  O16  1  0.000000  0.000000  0.982014  1
  O  O17  1  0.000000  0.000000  0.482014  1
  O  O18  1  0.358731  0.000000  0.839760  1
  O  O19  1  0.358731  0.358731  0.339760  1
  O  O20  1  0.000000  0.641269  0.339760  1
  O  O21  1  1.000000  0.358731  0.839760  1
  O  O22  1  0.641269  0.641269  0.839760  1
  O  O23  1  0.641269  0.000000  0.339760  1
  O  O24  1  0.307645  0.000000  0.164713  1
  O  O25  1  0.307645  0.307645  0.664713  1
  O  O26  1  1.000000  0.692355  0.664713  1
  O  O27  1  0.000000  0.307645  0.164713  1
  O  O28  1  0.692355  0.692355  0.164713  1
  O  O29  1  0.692355  0.000000  0.664713  1
