# generated using pymatgen
data_CoW2O7
_symmetry_space_group_name_H-M   'P 1'
_cell_length_a   7.06962520
_cell_length_b   12.01446245
_cell_length_c   16.10827279
_cell_angle_alpha   90.00000000
_cell_angle_beta   90.00000000
_cell_angle_gamma   102.05647843
_symmetry_Int_Tables_number   1
_chemical_formula_structural   CoW2O7
_chemical_formula_sum   'Co8 W16 O56'
_cell_volume   1338.02087241
_cell_formula_units_Z   8
loop_
 _symmetry_equiv_pos_site_id
 _symmetry_equiv_pos_as_xyz
  1  'x, y, z'
loop_
 _atom_site_type_symbol
 _atom_site_label
 _atom_site_symmetry_multiplicity
 _atom_site_fract_x
 _atom_site_fract_y
 _atom_site_fract_z
 _atom_site_occupancy
  Co  Co0  1  0.644092  0.081038  0.669888  1
  Co  Co1  1  0.355908  0.418962  0.169888  1
  Co  Co2  1  0.355908  0.918962  0.330112  1
  Co  Co3  1  0.644092  0.581038  0.830112  1
  Co  Co4  1  0.996698  0.250260  0.755093  1
  Co  Co5  1  0.003302  0.249740  0.255093  1
  Co  Co6  1  0.003302  0.749740  0.244907  1
  Co  Co7  1  0.996698  0.750260  0.744907  1
  W  W8  1  0.846617  0.977238  0.855148  1
  W  W9  1  0.420579  0.680460  0.010872  1
  W  W10  1  0.420579  0.180460  0.489128  1
  W  W11  1  0.579421  0.319540  0.989128  1
  W  W12  1  0.523657  0.807305  0.704979  1
  W  W13  1  0.476343  0.692695  0.204979  1
  W  W14  1  0.476343  0.192695  0.295021  1
  W  W15  1  0.523657  0.307305  0.795021  1
  W  W16  1  0.579421  0.819540  0.510872  1
  W  W17  1  0.879320  0.479342  0.134208  1
  W  W18  1  0.120680  0.020658  0.634208  1
  W  W19  1  0.120680  0.520658  0.865792  1
  W  W20  1  0.153383  0.522762  0.355148  1
  W  W21  1  0.846617  0.477238  0.644852  1
  W  W22  1  0.153383  0.022762  0.144852  1
  W  W23  1  0.879320  0.979342  0.365792  1
  O  O24  1  0.761515  0.956053  0.956964  1
  O  O25  1  0.238485  0.543947  0.456964  1
  O  O26  1  0.238485  0.043947  0.043036  1
  O  O27  1  0.761515  0.456053  0.543036  1
  O  O28  1  0.995053  0.876853  0.828868  1
  O  O29  1  0.004947  0.623147  0.328868  1
  O  O30  1  0.004947  0.123147  0.171132  1
  O  O31  1  0.995053  0.376853  0.671132  1
  O  O32  1  0.972157  0.123767  0.840004  1
  O  O33  1  0.027843  0.376233  0.340004  1
  O  O34  1  0.027843  0.876233  0.159996  1
  O  O35  1  0.972157  0.623767  0.659996  1
  O  O36  1  0.665640  0.950983  0.304000  1
  O  O37  1  0.334360  0.549017  0.804000  1
  O  O38  1  0.334360  0.049017  0.696000  1
  O  O39  1  0.665640  0.450983  0.196000  1
  O  O40  1  0.993624  0.125670  0.351785  1
  O  O41  1  0.006376  0.374330  0.851785  1
  O  O42  1  0.006376  0.874330  0.648215  1
  O  O43  1  0.993624  0.625670  0.148215  1
  O  O44  1  0.049540  0.889794  0.334711  1
  O  O45  1  0.395863  0.835522  0.437858  1
  O  O46  1  0.950460  0.610206  0.834711  1
  O  O47  1  0.049540  0.389794  0.165289  1
  O  O48  1  0.706908  0.724269  0.468910  1
  O  O49  1  0.293092  0.775731  0.968910  1
  O  O50  1  0.293092  0.275731  0.531090  1
  O  O51  1  0.706908  0.224269  0.031090  1
  O  O52  1  0.782340  0.955318  0.474535  1
  O  O53  1  0.217660  0.544682  0.974535  1
  O  O54  1  0.217660  0.044682  0.525465  1
  O  O55  1  0.782340  0.455318  0.025465  1
  O  O56  1  0.458800  0.223765  0.896708  1
  O  O57  1  0.541200  0.276235  0.396708  1
  O  O58  1  0.541200  0.776235  0.103292  1
  O  O59  1  0.458800  0.723765  0.603292  1
  O  O60  1  0.677498  0.218102  0.749209  1
  O  O61  1  0.322502  0.281898  0.249210  1
  O  O62  1  0.322502  0.781898  0.250791  1
  O  O63  1  0.677498  0.718102  0.750791  1
  O  O64  1  0.641659  0.444964  0.727332  1
  O  O65  1  0.358341  0.055036  0.227332  1
  O  O66  1  0.358341  0.555036  0.272668  1
  O  O67  1  0.641659  0.944964  0.772668  1
  O  O68  1  0.292330  0.279887  0.748888  1
  O  O69  1  0.707670  0.220113  0.248888  1
  O  O70  1  0.707670  0.720113  0.251112  1
  O  O71  1  0.292330  0.779887  0.751112  1
  O  O72  1  0.600877  0.423967  0.883452  1
  O  O73  1  0.399123  0.076033  0.383452  1
  O  O74  1  0.399123  0.576033  0.116548  1
  O  O75  1  0.600877  0.923967  0.616548  1
  O  O76  1  0.395863  0.335522  0.062142  1
  O  O77  1  0.604137  0.164478  0.562142  1
  O  O78  1  0.604137  0.664478  0.937858  1
  O  O79  1  0.950460  0.110206  0.665289  1
