# generated using pymatgen
data_TiAl(WO4)2
_symmetry_space_group_name_H-M   'P 1'
_cell_length_a   5.07650112
_cell_length_b   5.58588392
_cell_length_c   9.21771585
_cell_angle_alpha   90.00083563
_cell_angle_beta   90.62395110
_cell_angle_gamma   89.99832838
_symmetry_Int_Tables_number   1
_chemical_formula_structural   TiAl(WO4)2
_chemical_formula_sum   'Ti2 Al2 W4 O16'
_cell_volume   261.36892758
_cell_formula_units_Z   2
loop_
 _symmetry_equiv_pos_site_id
 _symmetry_equiv_pos_as_xyz
  1  'x, y, z'
loop_
 _atom_site_type_symbol
 _atom_site_label
 _atom_site_symmetry_multiplicity
 _atom_site_fract_x
 _atom_site_fract_y
 _atom_site_fract_z
 _atom_site_occupancy
  Ti  Ti0  1  0.749986  0.363978  0.250005  1
  Ti  Ti1  1  0.250014  0.636021  0.749995  1
  Al  Al2  1  0.249996  0.656101  0.249998  1
  Al  Al3  1  0.750003  0.343898  0.750002  1
  W  W4  1  0.255195  0.155518  0.498399  1
  W  W5  1  0.244776  0.155525  0.001592  1
  W  W6  1  0.744805  0.844482  0.501601  1
  W  W7  1  0.755224  0.844475  0.998408  1
  O  O8  1  0.411269  0.387628  0.136119  1
  O  O9  1  0.088717  0.387632  0.363901  1
  O  O10  1  0.588731  0.612371  0.863881  1
  O  O11  1  0.911282  0.612367  0.636099  1
  O  O12  1  0.399515  0.873201  0.621362  1
  O  O13  1  0.100454  0.873185  0.878639  1
  O  O14  1  0.600485  0.126799  0.378638  1
  O  O15  1  0.899546  0.126815  0.121361  1
  O  O16  1  0.932042  0.624088  0.142670  1
  O  O17  1  0.567955  0.624079  0.357336  1
  O  O18  1  0.067958  0.375913  0.857330  1
  O  O19  1  0.432045  0.375922  0.642664  1
  O  O20  1  0.409295  0.875696  0.115930  1
  O  O21  1  0.590705  0.124305  0.884070  1
  O  O22  1  0.090734  0.875692  0.384075  1
  O  O23  1  0.909266  0.124309  0.615925  1
