# generated using pymatgen
data_BaSb4O7
_symmetry_space_group_name_H-M   'P 1'
_cell_length_a   7.54250376
_cell_length_b   7.54250316
_cell_length_c   13.47080013
_cell_angle_alpha   90.00000000
_cell_angle_beta   90.00000000
_cell_angle_gamma   120.00000678
_symmetry_Int_Tables_number   1
_chemical_formula_structural   BaSb4O7
_chemical_formula_sum   'Ba2 Sb8 O14'
_cell_volume   663.67434577
_cell_formula_units_Z   2
loop_
 _symmetry_equiv_pos_site_id
 _symmetry_equiv_pos_as_xyz
  1  'x, y, z'
loop_
 _atom_site_type_symbol
 _atom_site_label
 _atom_site_symmetry_multiplicity
 _atom_site_fract_x
 _atom_site_fract_y
 _atom_site_fract_z
 _atom_site_occupancy
  Ba  Ba0  1  0.666667  0.333333  0.403225  1
  Ba  Ba1  1  0.333333  0.666667  0.903225  1
  Sb  Sb2  1  0.833560  0.166441  0.192351  1
  Sb  Sb3  1  0.667118  0.833559  0.692352  1
  Sb  Sb4  1  0.166441  0.332882  0.692352  1
  Sb  Sb5  1  0.833560  0.667118  0.192351  1
  Sb  Sb6  1  0.332881  0.166441  0.192351  1
  Sb  Sb7  1  0.166441  0.833559  0.692352  1
  Sb  Sb8  1  0.000000  -0.000000  0.470223  1
  Sb  Sb9  1  0.000000  -0.000000  0.970223  1
  O  O10  1  0.861553  0.138448  0.036700  1
  O  O11  1  0.723107  0.861552  0.536699  1
  O  O12  1  0.138447  0.276892  0.536699  1
  O  O13  1  0.861554  0.723108  0.036700  1
  O  O14  1  0.276892  0.138448  0.036700  1
  O  O15  1  0.138447  0.861552  0.536699  1
  O  O16  1  -0.000000  -0.000000  0.736903  1
  O  O17  1  0.000000  0.000000  0.236904  1
  O  O18  1  0.533716  0.466286  0.252183  1
  O  O19  1  0.067431  0.533716  0.752183  1
  O  O20  1  0.466285  0.932569  0.752183  1
  O  O21  1  0.533716  0.067431  0.252183  1
  O  O22  1  0.466286  0.533716  0.752183  1
  O  O23  1  0.932569  0.466286  0.252183  1
