# generated using pymatgen
data_Ca(AgO2)2
_symmetry_space_group_name_H-M   'P 1'
_cell_length_a   3.32609067
_cell_length_b   9.61512092
_cell_length_c   11.26707453
_cell_angle_alpha   90.00852857
_cell_angle_beta   90.00042548
_cell_angle_gamma   89.99974672
_symmetry_Int_Tables_number   1
_chemical_formula_structural   Ca(AgO2)2
_chemical_formula_sum   'Ca4 Ag8 O16'
_cell_volume   360.32964732
_cell_formula_units_Z   4
loop_
 _symmetry_equiv_pos_site_id
 _symmetry_equiv_pos_as_xyz
  1  'x, y, z'
loop_
 _atom_site_type_symbol
 _atom_site_label
 _atom_site_symmetry_multiplicity
 _atom_site_fract_x
 _atom_site_fract_y
 _atom_site_fract_z
 _atom_site_occupancy
  Ca  Ca0  1  0.750000  0.241219  0.342508  1
  Ca  Ca1  1  0.250000  0.758659  0.657800  1
  Ca  Ca2  1  0.750002  0.741352  0.157935  1
  Ca  Ca3  1  0.249996  0.258440  0.842230  1
  Ag  Ag4  1  0.250000  0.416531  0.106434  1
  Ag  Ag5  1  0.749996  0.083496  0.606309  1
  Ag  Ag6  1  0.250001  0.916273  0.393521  1
  Ag  Ag7  1  0.749999  0.583575  0.893552  1
  Ag  Ag8  1  0.750004  0.562298  0.388510  1
  Ag  Ag9  1  0.249999  0.437557  0.611793  1
  Ag  Ag10  1  0.750001  0.062588  0.111726  1
  Ag  Ag11  1  0.249997  0.937643  0.888486  1
  O  O12  1  0.250001  0.893922  0.069990  1
  O  O13  1  0.749994  0.107020  0.930411  1
  O  O14  1  0.249997  0.393497  0.430114  1
  O  O15  1  0.750003  0.606262  0.570116  1
  O  O16  1  0.249997  0.020350  0.722138  1
  O  O17  1  0.750001  0.979911  0.277992  1
  O  O18  1  0.250001  0.520250  0.778334  1
  O  O19  1  0.749998  0.479846  0.221954  1
  O  O20  1  0.250000  0.616523  0.034361  1
  O  O21  1  0.750003  0.383570  0.965156  1
  O  O22  1  0.250002  0.116399  0.464957  1
  O  O23  1  0.749997  0.883378  0.534833  1
  O  O24  1  0.750002  0.781153  0.819880  1
  O  O25  1  0.250000  0.218463  0.179566  1
  O  O26  1  0.250002  0.718398  0.319901  1
  O  O27  1  0.749994  0.281426  0.679492  1
