# generated using pymatgen
data_MoP2O7
_symmetry_space_group_name_H-M   'P 1'
_cell_length_a   7.03545531
_cell_length_b   8.93678991
_cell_length_c   9.72158946
_cell_angle_alpha   90.00000000
_cell_angle_beta   70.87666482
_cell_angle_gamma   90.00000000
_symmetry_Int_Tables_number   1
_chemical_formula_structural   MoP2O7
_chemical_formula_sum   'Mo4 P8 O28'
_cell_volume   577.50809158
_cell_formula_units_Z   4
loop_
 _symmetry_equiv_pos_site_id
 _symmetry_equiv_pos_as_xyz
  1  'x, y, z'
loop_
 _atom_site_type_symbol
 _atom_site_label
 _atom_site_symmetry_multiplicity
 _atom_site_fract_x
 _atom_site_fract_y
 _atom_site_fract_z
 _atom_site_occupancy
  Mo  Mo0  1  0.701161  0.076884  0.197206  1
  Mo  Mo1  1  0.701161  0.423116  0.697206  1
  Mo  Mo2  1  0.298839  0.576884  0.302794  1
  Mo  Mo3  1  0.298839  0.923116  0.802794  1
  P  P4  1  0.526022  0.712586  0.532419  1
  P  P5  1  0.096354  0.245849  0.248417  1
  P  P6  1  0.903646  0.745849  0.251583  1
  P  P7  1  0.096354  0.254151  0.748417  1
  P  P8  1  0.526022  0.787414  0.032419  1
  P  P9  1  0.903646  0.754151  0.751583  1
  P  P10  1  0.473978  0.212586  0.967581  1
  P  P11  1  0.473978  0.287414  0.467581  1
  O  O12  1  0.518181  0.131196  0.391284  1
  O  O13  1  0.261202  0.223721  0.084102  1
  O  O14  1  0.896314  0.261447  0.716082  1
  O  O15  1  0.119552  0.082164  0.781642  1
  O  O16  1  0.481819  0.868804  0.608716  1
  O  O17  1  0.738798  0.776279  0.915898  1
  O  O18  1  0.635109  0.192061  0.044017  1
  O  O19  1  0.523233  0.910319  0.140297  1
  O  O20  1  0.880448  0.582164  0.718358  1
  O  O21  1  0.364891  0.692061  0.455983  1
  O  O22  1  0.518181  0.368804  0.891284  1
  O  O23  1  0.865914  0.859701  0.647359  1
  O  O24  1  0.481819  0.631196  0.108716  1
  O  O25  1  0.103686  0.738553  0.283918  1
  O  O26  1  0.476767  0.410319  0.359703  1
  O  O27  1  0.364891  0.807939  0.955983  1
  O  O28  1  0.880448  0.917836  0.218358  1
  O  O29  1  0.896314  0.238553  0.216082  1
  O  O30  1  0.134086  0.140299  0.352641  1
  O  O31  1  0.523233  0.589681  0.640297  1
  O  O32  1  0.261202  0.276279  0.584102  1
  O  O33  1  0.635109  0.307939  0.544017  1
  O  O34  1  0.476767  0.089681  0.859703  1
  O  O35  1  0.119552  0.417836  0.281642  1
  O  O36  1  0.738798  0.723721  0.415898  1
  O  O37  1  0.865914  0.640299  0.147359  1
  O  O38  1  0.103686  0.761447  0.783918  1
  O  O39  1  0.134086  0.359701  0.852641  1
