# generated using pymatgen
data_CaCoBiO5
_symmetry_space_group_name_H-M   'P 1'
_cell_length_a   5.55718314
_cell_length_b   11.33405180
_cell_length_c   15.49149655
_cell_angle_alpha   90.00000000
_cell_angle_beta   90.00000000
_cell_angle_gamma   90.00000000
_symmetry_Int_Tables_number   1
_chemical_formula_structural   CaCoBiO5
_chemical_formula_sum   'Ca8 Co8 Bi8 O40'
_cell_volume   975.73813114
_cell_formula_units_Z   8
loop_
 _symmetry_equiv_pos_site_id
 _symmetry_equiv_pos_as_xyz
  1  'x, y, z'
loop_
 _atom_site_type_symbol
 _atom_site_label
 _atom_site_symmetry_multiplicity
 _atom_site_fract_x
 _atom_site_fract_y
 _atom_site_fract_z
 _atom_site_occupancy
  Ca  Ca0  1  0.503394  0.359298  0.449258  1
  Ca  Ca1  1  0.003394  0.140702  0.449258  1
  Ca  Ca2  1  0.003394  0.640702  0.050742  1
  Ca  Ca3  1  0.996606  0.359298  0.949258  1
  Ca  Ca4  1  0.496606  0.140702  0.949258  1
  Ca  Ca5  1  0.996606  0.859298  0.550742  1
  Ca  Ca6  1  0.496606  0.640702  0.550742  1
  Ca  Ca7  1  0.503394  0.859298  0.050742  1
  Co  Co8  1  0.981823  0.405322  0.599017  1
  Co  Co9  1  0.518177  0.905322  0.400983  1
  Co  Co10  1  0.018177  0.594678  0.400983  1
  Co  Co11  1  0.481823  0.094678  0.599017  1
  Co  Co12  1  0.018177  0.094678  0.099017  1
  Co  Co13  1  0.981823  0.905322  0.900983  1
  Co  Co14  1  0.518177  0.405322  0.099017  1
  Co  Co15  1  0.481823  0.594678  0.900983  1
  Bi  Bi16  1  0.943856  0.843839  0.232363  1
  Bi  Bi17  1  0.056144  0.156161  0.767637  1
  Bi  Bi18  1  0.556144  0.343839  0.767637  1
  Bi  Bi19  1  0.056144  0.656161  0.732363  1
  Bi  Bi20  1  0.443856  0.156161  0.267637  1
  Bi  Bi21  1  0.443856  0.656161  0.232363  1
  Bi  Bi22  1  0.556144  0.843839  0.732363  1
  Bi  Bi23  1  0.943856  0.343839  0.267637  1
  O  O24  1  0.927338  0.323776  0.697453  1
  O  O25  1  0.306584  0.047682  0.070604  1
  O  O26  1  0.193416  0.547682  0.929396  1
  O  O27  1  0.238309  0.771434  0.151663  1
  O  O28  1  0.261691  0.271434  0.848337  1
  O  O29  1  0.927338  0.823776  0.802547  1
  O  O30  1  0.261691  0.771434  0.651663  1
  O  O31  1  0.572662  0.823776  0.302547  1
  O  O32  1  0.306584  0.547682  0.429396  1
  O  O33  1  0.072662  0.676224  0.302547  1
  O  O34  1  0.572662  0.323776  0.197453  1
  O  O35  1  0.623912  0.179877  0.523483  1
  O  O36  1  0.806584  0.952318  0.429396  1
  O  O37  1  0.761691  0.728566  0.651663  1
  O  O38  1  0.174007  0.025591  0.868158  1
  O  O39  1  0.806584  0.452318  0.070604  1
  O  O40  1  0.072662  0.176224  0.197453  1
  O  O41  1  0.738309  0.228566  0.348337  1
  O  O42  1  0.123912  0.820123  0.976517  1
  O  O43  1  0.193416  0.047682  0.570604  1
  O  O44  1  0.376088  0.820123  0.476517  1
  O  O45  1  0.825993  0.974409  0.131842  1
  O  O46  1  0.761691  0.228566  0.848337  1
  O  O47  1  0.674007  0.974409  0.631842  1
  O  O48  1  0.376088  0.320123  0.023483  1
  O  O49  1  0.123912  0.320123  0.523483  1
  O  O50  1  0.693416  0.452318  0.570604  1
  O  O51  1  0.693416  0.952318  0.929396  1
  O  O52  1  0.674007  0.474409  0.868158  1
  O  O53  1  0.876088  0.679877  0.476517  1
  O  O54  1  0.876088  0.179877  0.023483  1
  O  O55  1  0.623912  0.679877  0.976517  1
  O  O56  1  0.825993  0.474409  0.368158  1
  O  O57  1  0.738309  0.728566  0.151663  1
  O  O58  1  0.238309  0.271434  0.348337  1
  O  O59  1  0.174007  0.525591  0.631842  1
  O  O60  1  0.325993  0.525591  0.131842  1
  O  O61  1  0.427338  0.176224  0.697453  1
  O  O62  1  0.325993  0.025591  0.368158  1
  O  O63  1  0.427338  0.676224  0.802547  1
