# generated using pymatgen
data_Ca2FeWO6
_symmetry_space_group_name_H-M   'P 1'
_cell_length_a   5.70070616
_cell_length_b   5.64353163
_cell_length_c   8.02795450
_cell_angle_alpha   89.37328089
_cell_angle_beta   135.28980294
_cell_angle_gamma   120.82261986
_symmetry_Int_Tables_number   1
_chemical_formula_structural   Ca2FeWO6
_chemical_formula_sum   'Ca2 Fe1 W1 O6'
_cell_volume   126.59572062
_cell_formula_units_Z   1
loop_
 _symmetry_equiv_pos_site_id
 _symmetry_equiv_pos_as_xyz
  1  'x, y, z'
loop_
 _atom_site_type_symbol
 _atom_site_label
 _atom_site_symmetry_multiplicity
 _atom_site_fract_x
 _atom_site_fract_y
 _atom_site_fract_z
 _atom_site_occupancy
  Ca  Ca0  1  0.998906  0.531081  0.270473  1
  Ca  Ca1  1  0.005706  0.530799  0.775023  1
  Fe  Fe2  1  -0.000308  0.989071  0.503313  1
  W  W3  1  0.001646  0.982425  0.999059  1
  O  O4  1  0.182003  0.052964  0.322126  1
  O  O5  1  0.811200  0.867471  0.667254  1
  O  O6  1  0.410607  0.462612  0.154303  1
  O  O7  1  0.436104  0.882647  0.757152  1
  O  O8  1  0.544336  0.049896  0.211182  1
  O  O9  1  0.624635  0.493525  0.845304  1
