# generated using pymatgen
data_PrZn(AgO3)2
_symmetry_space_group_name_H-M   'P 1'
_cell_length_a   5.41488804
_cell_length_b   5.77007611
_cell_length_c   8.17108099
_cell_angle_alpha   89.96335089
_cell_angle_beta   90.02691645
_cell_angle_gamma   89.85276281
_symmetry_Int_Tables_number   1
_chemical_formula_structural   PrZn(AgO3)2
_chemical_formula_sum   'Pr2 Zn2 Ag4 O12'
_cell_volume   255.29891400
_cell_formula_units_Z   2
loop_
 _symmetry_equiv_pos_site_id
 _symmetry_equiv_pos_as_xyz
  1  'x, y, z'
loop_
 _atom_site_type_symbol
 _atom_site_label
 _atom_site_symmetry_multiplicity
 _atom_site_fract_x
 _atom_site_fract_y
 _atom_site_fract_z
 _atom_site_occupancy
  Pr  Pr0  1  0.020920  0.929589  0.750043  1
  Pr  Pr1  1  0.521669  0.571455  0.249982  1
  Zn  Zn2  1  0.469208  0.436807  0.750085  1
  Zn  Zn3  1  0.969714  0.062654  0.249860  1
  Ag  Ag4  1  0.999584  0.493891  0.997540  1
  Ag  Ag5  1  0.999990  0.493472  0.502333  1
  Ag  Ag6  1  0.499991  0.005815  0.497710  1
  Ag  Ag7  1  0.499773  0.005822  0.002414  1
  O  O8  1  0.111941  0.424508  0.249551  1
  O  O9  1  0.221042  0.224870  0.915424  1
  O  O10  1  0.221196  0.224930  0.584191  1
  O  O11  1  0.313766  0.688361  0.572733  1
  O  O12  1  0.313507  0.688520  0.927244  1
  O  O13  1  0.326597  0.949425  0.249904  1
  O  O14  1  0.612763  0.074929  0.750054  1
  O  O15  1  0.721547  0.275763  0.084389  1
  O  O16  1  0.721875  0.276056  0.415952  1
  O  O17  1  0.813860  0.811150  0.072800  1
  O  O18  1  0.813887  0.811270  0.427249  1
  O  O19  1  0.827167  0.550714  0.750541  1
