# generated using pymatgen
data_Ba2Ca2Tl2Co3O10
_symmetry_space_group_name_H-M   'P 1'
_cell_length_a   3.93341795
_cell_length_b   3.90250189
_cell_length_c   18.63401083
_cell_angle_alpha   96.05733025
_cell_angle_beta   96.19566587
_cell_angle_gamma   89.05056298
_symmetry_Int_Tables_number   1
_chemical_formula_structural   Ba2Ca2Tl2Co3O10
_chemical_formula_sum   'Ba2 Ca2 Tl2 Co3 O10'
_cell_volume   282.77301083
_cell_formula_units_Z   1
loop_
 _symmetry_equiv_pos_site_id
 _symmetry_equiv_pos_as_xyz
  1  'x, y, z'
loop_
 _atom_site_type_symbol
 _atom_site_label
 _atom_site_symmetry_multiplicity
 _atom_site_fract_x
 _atom_site_fract_y
 _atom_site_fract_z
 _atom_site_occupancy
  Ba  Ba0  1  0.090623  0.157985  0.284427  1
  Ba  Ba1  1  0.794572  0.840935  0.714598  1
  Ca  Ca2  1  0.885230  0.945604  0.909631  1
  Ca  Ca3  1  0.984324  0.060459  0.089499  1
  Tl  Tl4  1  0.620600  0.718464  0.436665  1
  Tl  Tl5  1  0.180303  0.271742  0.562053  1
  Co  Co6  1  0.345478  0.397594  0.826488  1
  Co  Co7  1  0.530433  0.605148  0.172590  1
  Co  Co8  1  0.432345  0.504515  0.999675  1
  O  O9  1  0.345830  0.898402  0.828266  1
  O  O10  1  0.288093  0.323061  0.676532  1
  O  O11  1  0.846115  0.398507  0.828346  1
  O  O12  1  0.830966  0.772089  0.549913  1
  O  O13  1  0.932117  0.505325  -0.000024  1
  O  O14  1  0.029859  0.604722  0.171078  1
  O  O15  1  0.620879  0.674669  0.322443  1
  O  O16  1  0.528874  0.104637  0.170525  1
  O  O17  1  0.283010  0.229240  0.448994  1
  O  O18  1  0.431441  0.004865  0.999265  1
