# generated using pymatgen
data_Ba2Ca3Tl2Cr4O12
_symmetry_space_group_name_H-M   'P 1'
_cell_length_a   3.95706252
_cell_length_b   3.95706245
_cell_length_c   22.38064988
_cell_angle_alpha   95.07177317
_cell_angle_beta   95.07177398
_cell_angle_gamma   89.99999496
_symmetry_Int_Tables_number   1
_chemical_formula_structural   Ba2Ca3Tl2Cr4O12
_chemical_formula_sum   'Ba2 Ca3 Tl2 Cr4 O12'
_cell_volume   347.69432960
_cell_formula_units_Z   1
loop_
 _symmetry_equiv_pos_site_id
 _symmetry_equiv_pos_as_xyz
  1  'x, y, z'
loop_
 _atom_site_type_symbol
 _atom_site_label
 _atom_site_symmetry_multiplicity
 _atom_site_fract_x
 _atom_site_fract_y
 _atom_site_fract_z
 _atom_site_occupancy
  Ba  Ba0  1  0.160818  0.160818  0.321634  1
  Ba  Ba1  1  0.839182  0.839182  0.678366  1
  Ca  Ca2  1  0.077089  0.077089  0.154177  1
  Ca  Ca3  1  0.922911  0.922911  0.845823  1
  Ca  Ca4  1  0.000000  0.000000  0.000000  1
  Tl  Tl5  1  0.724170  0.724170  0.448339  1
  Tl  Tl6  1  0.275830  0.275830  0.551661  1
  Cr  Cr7  1  0.537767  0.537767  0.075534  1
  Cr  Cr8  1  0.384614  0.384614  0.769227  1
  Cr  Cr9  1  0.615386  0.615386  0.230773  1
  Cr  Cr10  1  0.462233  0.462233  0.924466  1
  O  O11  1  0.392828  0.892828  0.785656  1
  O  O12  1  0.535321  0.035321  0.070643  1
  O  O13  1  0.221652  0.221652  0.443304  1
  O  O14  1  0.964679  0.464679  0.929357  1
  O  O15  1  0.778348  0.778348  0.556696  1
  O  O16  1  0.107172  0.607172  0.214344  1
  O  O17  1  0.607172  0.107172  0.214344  1
  O  O18  1  0.341352  0.341352  0.682705  1
  O  O19  1  0.892828  0.392828  0.785656  1
  O  O20  1  0.035321  0.535321  0.070643  1
  O  O21  1  0.464679  0.964679  0.929357  1
  O  O22  1  0.658648  0.658648  0.317295  1
