# generated using pymatgen
data_Y(MnS2)2
_symmetry_space_group_name_H-M   'P 1'
_cell_length_a   7.50938513
_cell_length_b   7.50938549
_cell_length_c   7.54570413
_cell_angle_alpha   118.58006253
_cell_angle_beta   120.05170758
_cell_angle_gamma   90.92231283
_symmetry_Int_Tables_number   1
_chemical_formula_structural   Y(MnS2)2
_chemical_formula_sum   'Y2 Mn4 S8'
_cell_volume   304.58614140
_cell_formula_units_Z   2
loop_
 _symmetry_equiv_pos_site_id
 _symmetry_equiv_pos_as_xyz
  1  'x, y, z'
loop_
 _atom_site_type_symbol
 _atom_site_label
 _atom_site_symmetry_multiplicity
 _atom_site_fract_x
 _atom_site_fract_y
 _atom_site_fract_z
 _atom_site_occupancy
  Y  Y0  1  0.000000  0.500001  0.000001  1
  Y  Y1  1  0.000001  -0.000000  0.500000  1
  Mn  Mn2  1  0.370360  0.620360  0.750000  1
  Mn  Mn3  1  0.629640  0.379641  0.250000  1
  Mn  Mn4  1  0.500001  -0.000000  0.500000  1
  Mn  Mn5  1  0.000000  -0.000000  -0.000000  1
  S  S6  1  0.744188  0.768557  0.527838  1
  S  S7  1  0.740722  0.216354  0.972164  1
  S  S8  1  0.237457  0.234367  -0.000219  1
  S  S9  1  0.255812  0.231443  0.472163  1
  S  S10  1  0.265414  0.762324  0.499780  1
  S  S11  1  0.259278  0.783647  0.027838  1
  S  S12  1  0.734585  0.237675  0.500219  1
  S  S13  1  0.762543  0.765634  0.000219  1
