# generated using pymatgen
data_AlNi3F15
_symmetry_space_group_name_H-M   'P 1'
_cell_length_a   8.88768316
_cell_length_b   5.87234739
_cell_length_c   10.65369467
_cell_angle_alpha   90.00000000
_cell_angle_beta   90.00000000
_cell_angle_gamma   105.67563938
_symmetry_Int_Tables_number   1
_chemical_formula_structural   AlNi3F15
_chemical_formula_sum   'Al2 Ni6 F30'
_cell_volume   535.35228171
_cell_formula_units_Z   2
loop_
 _symmetry_equiv_pos_site_id
 _symmetry_equiv_pos_as_xyz
  1  'x, y, z'
loop_
 _atom_site_type_symbol
 _atom_site_label
 _atom_site_symmetry_multiplicity
 _atom_site_fract_x
 _atom_site_fract_y
 _atom_site_fract_z
 _atom_site_occupancy
  Al  Al0  1  0.910117  0.433650  0.250000  1
  Al  Al1  1  0.423216  0.566350  0.750000  1
  Ni  Ni2  1  0.166667  0.000000  0.500000  1
  Ni  Ni3  1  0.501060  0.017680  0.500286  1
  Ni  Ni4  1  0.832273  0.982320  0.499714  1
  Ni  Ni5  1  0.166667  0.000000  0.000000  1
  Ni  Ni6  1  0.501060  0.017680  -0.000286  1
  Ni  Ni7  1  0.832273  0.982320  0.000286  1
  F  F8  1  0.102102  0.573253  0.250000  1
  F  F9  1  0.463639  0.646897  0.250000  1
  F  F10  1  0.788240  0.606863  0.250000  1
  F  F11  1  0.231231  0.426747  0.750000  1
  F  F12  1  0.545094  0.393137  0.750000  1
  F  F13  1  0.869694  0.353103  0.750000  1
  F  F14  1  0.033695  0.124382  0.588939  1
  F  F15  1  0.337839  0.115165  0.599303  1
  F  F16  1  0.706166  0.138330  0.590586  1
  F  F17  1  0.299639  0.875618  0.411061  1
  F  F18  1  0.627167  0.861670  0.409414  1
  F  F19  1  0.995494  0.884835  0.400697  1
  F  F20  1  0.112222  0.738772  0.906912  1
  F  F21  1  0.459721  0.752506  0.879539  1
  F  F22  1  0.792951  0.720906  0.909801  1
  F  F23  1  0.221112  0.261228  0.093088  1
  F  F24  1  0.540382  0.279094  0.090199  1
  F  F25  1  0.873612  0.247494  0.120461  1
  F  F26  1  0.221112  0.261228  0.406912  1
  F  F27  1  0.540382  0.279094  0.409801  1
  F  F28  1  0.873612  0.247494  0.379539  1
  F  F29  1  0.112222  0.738772  0.593088  1
  F  F30  1  0.459721  0.752506  0.620461  1
  F  F31  1  0.792951  0.720906  0.590199  1
  F  F32  1  0.033695  0.124382  0.911061  1
  F  F33  1  0.337839  0.115165  0.900697  1
  F  F34  1  0.706166  0.138330  0.909414  1
  F  F35  1  0.299639  0.875618  0.088939  1
  F  F36  1  0.627167  0.861670  0.090586  1
  F  F37  1  0.995494  0.884835  0.099303  1
