# generated using pymatgen
data_ZnNiAs2O7
_symmetry_space_group_name_H-M   'P 1'
_cell_length_a   7.26229560
_cell_length_b   8.65943278
_cell_length_c   9.69107434
_cell_angle_alpha   90.00000000
_cell_angle_beta   113.10455580
_cell_angle_gamma   90.00000000
_symmetry_Int_Tables_number   1
_chemical_formula_structural   ZnNiAs2O7
_chemical_formula_sum   'Zn4 Ni4 As8 O28'
_cell_volume   560.56259721
_cell_formula_units_Z   4
loop_
 _symmetry_equiv_pos_site_id
 _symmetry_equiv_pos_as_xyz
  1  'x, y, z'
loop_
 _atom_site_type_symbol
 _atom_site_label
 _atom_site_symmetry_multiplicity
 _atom_site_fract_x
 _atom_site_fract_y
 _atom_site_fract_z
 _atom_site_occupancy
  Zn  Zn0  1  0.273819  0.922704  0.890330  1
  Zn  Zn1  1  0.726181  0.422704  0.609670  1
  Zn  Zn2  1  0.726181  0.077296  0.109670  1
  Zn  Zn3  1  0.273819  0.577296  0.390330  1
  Ni  Ni4  1  0.817257  0.059141  0.687130  1
  Ni  Ni5  1  0.182743  0.559141  0.812870  1
  Ni  Ni6  1  0.182743  0.940859  0.312870  1
  Ni  Ni7  1  0.817257  0.440859  0.187130  1
  As  As8  1  0.432508  0.227828  0.751491  1
  As  As9  1  0.567492  0.727828  0.748509  1
  As  As10  1  0.567492  0.772172  0.248509  1
  As  As11  1  0.432508  0.272172  0.251490  1
  As  As12  1  0.018888  0.278880  0.958698  1
  As  As13  1  0.981112  0.778880  0.541302  1
  As  As14  1  0.981112  0.721120  0.041302  1
  As  As15  1  0.018888  0.221120  0.458698  1
  O  O16  1  0.860884  0.270057  0.051922  1
  O  O17  1  0.139116  0.770057  0.448078  1
  O  O18  1  0.139116  0.729943  0.948078  1
  O  O19  1  0.860884  0.229943  0.551922  1
  O  O20  1  0.358258  0.405030  0.774541  1
  O  O21  1  0.641742  0.905030  0.725459  1
  O  O22  1  0.641742  0.594970  0.225459  1
  O  O23  1  0.358258  0.094970  0.274541  1
  O  O24  1  0.461445  0.099272  0.893527  1
  O  O25  1  0.538555  0.599272  0.606473  1
  O  O26  1  0.538555  0.900728  0.106473  1
  O  O27  1  0.461445  0.400728  0.393527  1
  O  O28  1  0.254737  0.146707  0.581891  1
  O  O29  1  0.745263  0.646707  0.918109  1
  O  O30  1  0.745263  0.853293  0.418109  1
  O  O31  1  0.254737  0.353293  0.081891  1
  O  O32  1  0.968208  0.076701  0.328749  1
  O  O33  1  0.031792  0.576701  0.171251  1
  O  O34  1  0.031792  0.923299  0.671251  1
  O  O35  1  0.968208  0.423299  0.828749  1
  O  O36  1  0.641515  0.266121  0.210659  1
  O  O37  1  0.358485  0.766121  0.289341  1
  O  O38  1  0.358485  0.733879  0.789341  1
  O  O39  1  0.641515  0.233879  0.710659  1
  O  O40  1  0.044035  0.396618  0.388620  1
  O  O41  1  0.955965  0.896618  0.111380  1
  O  O42  1  0.955965  0.603382  0.611380  1
  O  O43  1  0.044035  0.103382  0.888620  1
