# generated using pymatgen
data_Al(CuO2)2
_symmetry_space_group_name_H-M   'P 1'
_cell_length_a   5.20931873
_cell_length_b   5.20681461
_cell_length_c   6.11505383
_cell_angle_alpha   115.17778222
_cell_angle_beta   115.19074844
_cell_angle_gamma   90.04156628
_symmetry_Int_Tables_number   1
_chemical_formula_structural   Al(CuO2)2
_chemical_formula_sum   'Al2 Cu4 O8'
_cell_volume   132.44085434
_cell_formula_units_Z   2
loop_
 _symmetry_equiv_pos_site_id
 _symmetry_equiv_pos_as_xyz
  1  'x, y, z'
loop_
 _atom_site_type_symbol
 _atom_site_label
 _atom_site_symmetry_multiplicity
 _atom_site_fract_x
 _atom_site_fract_y
 _atom_site_fract_z
 _atom_site_occupancy
  Al  Al0  1  0.875598  0.125598  0.751197  1
  Al  Al1  1  0.124402  0.874402  0.248803  1
  Cu  Cu2  1  0.500000  0.000000  0.000000  1
  Cu  Cu3  1  0.500000  0.500000  0.000000  1
  Cu  Cu4  1  0.000000  0.500000  0.500000  1
  Cu  Cu5  1  0.500000  0.500000  0.500000  1
  O  O6  1  0.734030  0.474958  0.830574  1
  O  O7  1  0.096544  0.855616  0.830574  1
  O  O8  1  0.265970  0.525042  0.169426  1
  O  O9  1  0.903456  0.144384  0.169426  1
  O  O10  1  0.473905  0.096824  0.330680  1
  O  O11  1  0.856774  0.733856  0.330680  1
  O  O12  1  0.143226  0.266144  0.669320  1
  O  O13  1  0.526095  0.903176  0.669320  1
