# generated using pymatgen
data_Ba4CaTl4(Cu3O10)2
_symmetry_space_group_name_H-M   'P 1'
_cell_length_a   7.45841571
_cell_length_b   3.72437498
_cell_length_c   19.58229547
_cell_angle_alpha   94.26235818
_cell_angle_beta   95.29315013
_cell_angle_gamma   89.99630104
_symmetry_Int_Tables_number   1
_chemical_formula_structural   Ba4CaTl4(Cu3O10)2
_chemical_formula_sum   'Ba4 Ca1 Tl4 Cu6 O20'
_cell_volume   540.12549129
_cell_formula_units_Z   1
loop_
 _symmetry_equiv_pos_site_id
 _symmetry_equiv_pos_as_xyz
  1  'x, y, z'
loop_
 _atom_site_type_symbol
 _atom_site_label
 _atom_site_symmetry_multiplicity
 _atom_site_fract_x
 _atom_site_fract_y
 _atom_site_fract_z
 _atom_site_occupancy
  Ba  Ba0  1  0.049857  0.167536  0.282692  1
  Ba  Ba1  1  0.549962  0.167283  0.279863  1
  Ba  Ba2  1  0.399458  0.825586  0.719301  1
  Ba  Ba3  1  0.899617  0.825831  0.719737  1
  Ca  Ca4  1  0.489845  0.069397  0.084456  1
  Tl  Tl5  1  0.335920  0.723995  0.437366  1
  Tl  Tl6  1  0.834631  0.724029  0.437485  1
  Tl  Tl7  1  0.114706  0.269038  0.561343  1
  Tl  Tl8  1  0.614707  0.269058  0.561404  1
  Cu  Cu9  1  0.175093  0.371927  0.839539  1
  Cu  Cu10  1  0.674462  0.371615  0.839444  1
  Cu  Cu11  1  0.253388  0.618497  0.165866  1
  Cu  Cu12  1  0.782250  0.617472  0.164018  1
  Cu  Cu13  1  0.197849  0.520192  0.991578  1
  Cu  Cu14  1  0.712746  0.520144  0.989297  1
  O  O15  1  0.170503  0.863222  0.815845  1
  O  O16  1  0.670505  0.862885  0.815711  1
  O  O17  1  0.140592  0.303972  0.665875  1
  O  O18  1  0.640996  0.303937  0.665843  1
  O  O19  1  0.420339  0.367476  0.821064  1
  O  O20  1  0.920695  0.368190  0.821763  1
  O  O21  1  0.396591  0.763076  0.544778  1
  O  O22  1  0.897103  0.763069  0.544744  1
  O  O23  1  0.461199  0.536471  0.013240  1
  O  O24  1  0.960069  0.538818  0.011261  1
  O  O25  1  0.023034  0.631607  0.190855  1
  O  O26  1  0.519044  0.620389  0.172259  1
  O  O27  1  0.317681  0.688541  0.332386  1
  O  O28  1  0.813050  0.688468  0.332509  1
  O  O29  1  0.287686  0.122186  0.175662  1
  O  O30  1  0.750487  0.121243  0.173005  1
  O  O31  1  0.125531  0.230136  0.453465  1
  O  O32  1  0.625518  0.230266  0.453752  1
  O  O33  1  0.220310  0.024840  0.000156  1
  O  O34  1  0.697897  0.024547  0.997767  1
