# generated using pymatgen
data_Ba2Mg2Tl2Sn3O10
_symmetry_space_group_name_H-M   'P 1'
_cell_length_a   4.05088288
_cell_length_b   3.95123906
_cell_length_c   20.54472978
_cell_angle_alpha   96.32707987
_cell_angle_beta   96.55229605
_cell_angle_gamma   88.64969245
_symmetry_Int_Tables_number   1
_chemical_formula_structural   Ba2Mg2Tl2Sn3O10
_chemical_formula_sum   'Ba2 Mg2 Tl2 Sn3 O10'
_cell_volume   324.68114960
_cell_formula_units_Z   1
loop_
 _symmetry_equiv_pos_site_id
 _symmetry_equiv_pos_as_xyz
  1  'x, y, z'
loop_
 _atom_site_type_symbol
 _atom_site_label
 _atom_site_symmetry_multiplicity
 _atom_site_fract_x
 _atom_site_fract_y
 _atom_site_fract_z
 _atom_site_occupancy
  Ba  Ba0  1  0.148942  0.147740  0.306261  1
  Ba  Ba1  1  0.804600  0.808095  0.669532  1
  Mg  Mg2  1  0.931572  0.934571  0.893966  1
  Mg  Mg3  1  0.957010  0.023692  0.092636  1
  Tl  Tl4  1  0.714327  0.706954  0.438481  1
  Tl  Tl5  1  0.276087  0.261275  0.546830  1
  Sn  Sn6  1  0.385512  0.390525  0.815929  1
  Sn  Sn7  1  0.578857  0.616149  0.176740  1
  Sn  Sn8  1  0.395779  0.476635  0.985374  1
  O  O9  1  0.411542  0.911029  0.853359  1
  O  O10  1  0.321613  0.336123  0.717473  1
  O  O11  1  0.904316  0.409940  0.850673  1
  O  O12  1  0.806696  0.833075  0.555885  1
  O  O13  1  0.717019  0.535132  0.067835  1
  O  O14  1  0.077579  0.715591  0.175743  1
  O  O15  1  0.641953  0.631667  0.276421  1
  O  O16  1  0.521758  0.106652  0.142462  1
  O  O17  1  0.303799  0.193302  0.431507  1
  O  O18  1  0.102127  0.979818  0.993857  1
