# generated using pymatgen
data_Mg3Si3(MoO6)2
_symmetry_space_group_name_H-M   'P 1'
_cell_length_a   10.44834751
_cell_length_b   10.44834779
_cell_length_c   10.44834745
_cell_angle_alpha   109.47122182
_cell_angle_beta   109.47122242
_cell_angle_gamma   109.47121832
_symmetry_Int_Tables_number   1
_chemical_formula_structural   Mg3Si3(MoO6)2
_chemical_formula_sum   'Mg12 Si12 Mo8 O48'
_cell_volume   878.05342454
_cell_formula_units_Z   4
loop_
 _symmetry_equiv_pos_site_id
 _symmetry_equiv_pos_as_xyz
  1  'x, y, z'
loop_
 _atom_site_type_symbol
 _atom_site_label
 _atom_site_symmetry_multiplicity
 _atom_site_fract_x
 _atom_site_fract_y
 _atom_site_fract_z
 _atom_site_occupancy
  Mg  Mg0  1  0.375000  0.750000  0.125000  1
  Mg  Mg1  1  0.125000  0.250000  0.375000  1
  Mg  Mg2  1  0.375000  0.125000  0.250000  1
  Mg  Mg3  1  0.125000  0.375000  0.750000  1
  Mg  Mg4  1  0.875000  0.750000  0.625000  1
  Mg  Mg5  1  0.750000  0.125000  0.375000  1
  Mg  Mg6  1  0.750000  0.625000  0.875000  1
  Mg  Mg7  1  0.625000  0.250000  0.875000  1
  Mg  Mg8  1  0.250000  0.875000  0.625000  1
  Mg  Mg9  1  0.875000  0.625000  0.250000  1
  Mg  Mg10  1  0.625000  0.875000  0.750000  1
  Mg  Mg11  1  0.250000  0.375000  0.125000  1
  Si  Si12  1  0.250000  0.125000  0.875000  1
  Si  Si13  1  0.750000  0.875000  0.125000  1
  Si  Si14  1  0.375000  0.250000  0.625000  1
  Si  Si15  1  0.625000  0.375000  0.250000  1
  Si  Si16  1  0.125000  0.750000  0.875000  1
  Si  Si17  1  0.875000  0.125000  0.750000  1
  Si  Si18  1  0.750000  0.375000  0.625000  1
  Si  Si19  1  0.375000  0.625000  0.750000  1
  Si  Si20  1  0.125000  0.875000  0.250000  1
  Si  Si21  1  0.875000  0.250000  0.125000  1
  Si  Si22  1  0.625000  0.750000  0.375000  1
  Si  Si23  1  0.250000  0.625000  0.375000  1
  Mo  Mo24  1  0.000000  0.000000  0.000000  1
  Mo  Mo25  1  0.000000  0.500000  0.000000  1
  Mo  Mo26  1  0.000000  0.000000  0.500000  1
  Mo  Mo27  1  0.000000  0.500000  0.500000  1
  Mo  Mo28  1  0.500000  0.000000  0.500000  1
  Mo  Mo29  1  0.500000  0.500000  0.000000  1
  Mo  Mo30  1  0.500000  0.500000  0.500000  1
  Mo  Mo31  1  0.500000  0.000000  0.000000  1
  O  O32  1  0.279089  0.477749  0.372640  1
  O  O33  1  0.022251  0.301340  0.894891  1
  O  O34  1  0.127360  0.605109  0.906449  1
  O  O35  1  0.220911  0.593551  0.198660  1
  O  O36  1  0.220911  0.127360  0.022251  1
  O  O37  1  0.593551  0.198660  0.220911  1
  O  O38  1  0.605109  0.198660  0.477749  1
  O  O39  1  0.198660  0.220911  0.593551  1
  O  O40  1  0.894891  0.372640  0.593551  1
  O  O41  1  0.301340  0.906449  0.279089  1
  O  O42  1  0.906449  0.279089  0.301340  1
  O  O43  1  0.022251  0.220911  0.127360  1
  O  O44  1  0.198660  0.477749  0.605109  1
  O  O45  1  0.593551  0.894891  0.372640  1
  O  O46  1  0.127360  0.022251  0.220911  1
  O  O47  1  0.477749  0.605109  0.198660  1
  O  O48  1  0.372640  0.593551  0.894891  1
  O  O49  1  0.894891  0.022251  0.301340  1
  O  O50  1  0.605109  0.906449  0.127360  1
  O  O51  1  0.105109  0.627360  0.406449  1
  O  O52  1  0.906449  0.127360  0.605109  1
  O  O53  1  0.372640  0.279089  0.477749  1
  O  O54  1  0.301340  0.894891  0.022251  1
  O  O55  1  0.279089  0.301340  0.906449  1
  O  O56  1  0.720911  0.522251  0.627360  1
  O  O57  1  0.977749  0.698660  0.105109  1
  O  O58  1  0.872640  0.394891  0.093551  1
  O  O59  1  0.779089  0.406449  0.801340  1
  O  O60  1  0.779089  0.872640  0.977749  1
  O  O61  1  0.406449  0.801340  0.779089  1
  O  O62  1  0.394891  0.801340  0.522251  1
  O  O63  1  0.801340  0.779089  0.406449  1
  O  O64  1  0.720911  0.698660  0.093551  1
  O  O65  1  0.698660  0.105109  0.977749  1
  O  O66  1  0.627360  0.720911  0.522251  1
  O  O67  1  0.522251  0.627360  0.720911  1
  O  O68  1  0.093551  0.872640  0.394891  1
  O  O69  1  0.394891  0.093551  0.872640  1
  O  O70  1  0.105109  0.977749  0.698660  1
  O  O71  1  0.627360  0.406449  0.105109  1
  O  O72  1  0.522251  0.394891  0.801340  1
  O  O73  1  0.872640  0.977749  0.779089  1
  O  O74  1  0.406449  0.105109  0.627360  1
  O  O75  1  0.801340  0.522251  0.394891  1
  O  O76  1  0.977749  0.779089  0.872640  1
  O  O77  1  0.093551  0.720911  0.698660  1
  O  O78  1  0.698660  0.093551  0.720911  1
  O  O79  1  0.477749  0.372640  0.279089  1
