# generated using pymatgen
data_Ca(NiO2)2
_symmetry_space_group_name_H-M   'P 1'
_cell_length_a   6.12675222
_cell_length_b   6.12671441
_cell_length_c   6.12674021
_cell_angle_alpha   59.99650002
_cell_angle_beta   59.99671023
_cell_angle_gamma   59.99658849
_symmetry_Int_Tables_number   1
_chemical_formula_structural   Ca(NiO2)2
_chemical_formula_sum   'Ca2 Ni4 O8'
_cell_volume   162.60688755
_cell_formula_units_Z   2
loop_
 _symmetry_equiv_pos_site_id
 _symmetry_equiv_pos_as_xyz
  1  'x, y, z'
loop_
 _atom_site_type_symbol
 _atom_site_label
 _atom_site_symmetry_multiplicity
 _atom_site_fract_x
 _atom_site_fract_y
 _atom_site_fract_z
 _atom_site_occupancy
  Ca  Ca0  1  0.875003  0.875000  0.875003  1
  Ca  Ca1  1  0.124997  0.124998  0.124998  1
  Ni  Ni2  1  0.500000  0.000000  0.500000  1
  Ni  Ni3  1  -0.000000  0.500000  0.500000  1
  Ni  Ni4  1  0.500000  0.500000  -0.000001  1
  Ni  Ni5  1  0.500000  0.500000  0.500000  1
  O  O6  1  0.730011  0.730010  0.730010  1
  O  O7  1  0.269979  0.269981  0.690058  1
  O  O8  1  0.269980  0.690058  0.269980  1
  O  O9  1  0.690058  0.269981  0.269980  1
  O  O10  1  0.730020  0.309943  0.730019  1
  O  O11  1  0.309942  0.730019  0.730020  1
  O  O12  1  0.269989  0.269990  0.269989  1
  O  O13  1  0.730020  0.730019  0.309943  1
