# generated using pymatgen
data_Zn(FeO2)2
_symmetry_space_group_name_H-M   'P 1'
_cell_length_a   2.93590538
_cell_length_b   5.07849406
_cell_length_c   10.05652979
_cell_angle_alpha   90.00000000
_cell_angle_beta   90.00000000
_cell_angle_gamma   106.80124845
_symmetry_Int_Tables_number   1
_chemical_formula_structural   Zn(FeO2)2
_chemical_formula_sum   'Zn2 Fe4 O8'
_cell_volume   143.54206685
_cell_formula_units_Z   2
loop_
 _symmetry_equiv_pos_site_id
 _symmetry_equiv_pos_as_xyz
  1  'x, y, z'
loop_
 _atom_site_type_symbol
 _atom_site_label
 _atom_site_symmetry_multiplicity
 _atom_site_fract_x
 _atom_site_fract_y
 _atom_site_fract_z
 _atom_site_occupancy
  Zn  Zn0  1  0.387438  0.774876  0.750000  1
  Zn  Zn1  1  0.612562  0.225124  0.250000  1
  Fe  Fe2  1  0.868479  0.736960  0.073854  1
  Fe  Fe3  1  0.131521  0.263040  0.926146  1
  Fe  Fe4  1  0.868479  0.736960  0.426146  1
  Fe  Fe5  1  0.131521  0.263040  0.573854  1
  O  O6  1  0.229947  0.459896  0.386583  1
  O  O7  1  0.770053  0.540104  0.613417  1
  O  O8  1  0.770053  0.540104  0.886583  1
  O  O9  1  0.229947  0.459896  0.113417  1
  O  O10  1  0.964475  0.928950  0.250000  1
  O  O11  1  0.035525  0.071050  0.750000  1
  O  O12  1  0.500000  0.000000  -0.000000  1
  O  O13  1  0.500000  0.000000  0.500000  1
