# generated using pymatgen
data_ZnSi4NiO10
_symmetry_space_group_name_H-M   'P 1'
_cell_length_a   7.27121588
_cell_length_b   7.27186674
_cell_length_c   14.91813576
_cell_angle_alpha   90.00000000
_cell_angle_beta   90.00000000
_cell_angle_gamma   89.42188471
_symmetry_Int_Tables_number   1
_chemical_formula_structural   ZnSi4NiO10
_chemical_formula_sum   'Zn4 Si16 Ni4 O40'
_cell_volume   788.76094303
_cell_formula_units_Z   4
loop_
 _symmetry_equiv_pos_site_id
 _symmetry_equiv_pos_as_xyz
  1  'x, y, z'
loop_
 _atom_site_type_symbol
 _atom_site_label
 _atom_site_symmetry_multiplicity
 _atom_site_fract_x
 _atom_site_fract_y
 _atom_site_fract_z
 _atom_site_occupancy
  Zn  Zn0  1  0.250000  0.750000  0.499286  1
  Zn  Zn1  1  0.750000  0.250000  0.500714  1
  Zn  Zn2  1  0.750000  0.250000  0.999292  1
  Zn  Zn3  1  0.250000  0.750000  0.000708  1
  Si  Si4  1  0.910453  0.488564  0.644916  1
  Si  Si5  1  0.589547  0.011436  0.644916  1
  Si  Si6  1  0.988553  0.410412  0.855085  1
  Si  Si7  1  0.488320  0.589284  0.644610  1
  Si  Si8  1  0.011680  0.910716  0.644610  1
  Si  Si9  1  0.089235  0.988316  0.855375  1
  Si  Si10  1  0.410765  0.511684  0.855375  1
  Si  Si11  1  0.511447  0.089588  0.855085  1
  Si  Si12  1  0.089547  0.511436  0.355084  1
  Si  Si13  1  0.410453  0.988564  0.355084  1
  Si  Si14  1  0.011447  0.589588  0.144915  1
  Si  Si15  1  0.511680  0.410716  0.355390  1
  Si  Si16  1  0.988320  0.089284  0.355390  1
  Si  Si17  1  0.910765  0.011684  0.144625  1
  Si  Si18  1  0.589235  0.488316  0.144625  1
  Si  Si19  1  0.488553  0.910412  0.144915  1
  Ni  Ni20  1  0.250000  0.250000  0.566914  1
  Ni  Ni21  1  0.750000  0.750000  0.933116  1
  Ni  Ni22  1  0.750000  0.750000  0.433086  1
  Ni  Ni23  1  0.250000  0.250000  0.066884  1
  O  O24  1  0.987609  0.332605  0.576132  1
  O  O25  1  0.512391  0.167395  0.576132  1
  O  O26  1  0.832676  0.487638  0.923906  1
  O  O27  1  0.333197  0.519246  0.574635  1
  O  O28  1  0.166803  0.980754  0.574635  1
  O  O29  1  0.019271  0.833199  0.925345  1
  O  O30  1  0.480729  0.666801  0.925345  1
  O  O31  1  0.667324  0.012362  0.923906  1
  O  O32  1  0.012391  0.667395  0.423868  1
  O  O33  1  0.487609  0.832605  0.423868  1
  O  O34  1  0.167324  0.512362  0.076094  1
  O  O35  1  0.666803  0.480754  0.425365  1
  O  O36  1  0.833197  0.019246  0.425365  1
  O  O37  1  0.980729  0.166801  0.074655  1
  O  O38  1  0.519271  0.333199  0.074655  1
  O  O39  1  0.004667  0.309543  0.374443  1
  O  O40  1  0.332676  0.987638  0.076094  1
  O  O41  1  0.504667  0.809543  0.625557  1
  O  O42  1  0.190501  0.495188  0.874425  1
  O  O43  1  0.689882  0.497250  0.624952  1
  O  O44  1  0.810118  0.002750  0.624952  1
  O  O45  1  0.997102  0.189868  0.875018  1
  O  O46  1  0.502898  0.310132  0.875018  1
  O  O47  1  0.309499  0.004812  0.874425  1
  O  O48  1  0.440473  0.940561  0.249985  1
  O  O49  1  0.559265  0.440696  0.249992  1
  O  O50  1  0.940735  0.059305  0.249992  1
  O  O51  1  0.059528  0.559439  0.249985  1
  O  O52  1  0.559527  0.059440  0.750015  1
  O  O53  1  0.440735  0.559304  0.750008  1
  O  O54  1  0.059266  0.940696  0.750008  1
  O  O55  1  0.940473  0.440561  0.750015  1
  O  O56  1  0.690501  0.995188  0.125575  1
  O  O57  1  0.497102  0.689868  0.124982  1
  O  O58  1  0.002898  0.810132  0.124982  1
  O  O59  1  0.189882  0.997250  0.375048  1
  O  O60  1  0.310118  0.502750  0.375048  1
  O  O61  1  0.809499  0.504812  0.125575  1
  O  O62  1  0.495333  0.190457  0.374443  1
  O  O63  1  0.995333  0.690457  0.625557  1
