# generated using pymatgen
data_Ge3(WO6)2
_symmetry_space_group_name_H-M   'P 1'
_cell_length_a   10.72267701
_cell_length_b   10.72267662
_cell_length_c   10.72267632
_cell_angle_alpha   109.47121820
_cell_angle_beta   109.47121747
_cell_angle_gamma   109.47122184
_symmetry_Int_Tables_number   1
_chemical_formula_structural   Ge3(WO6)2
_chemical_formula_sum   'Ge12 W8 O48'
_cell_volume   949.04708974
_cell_formula_units_Z   4
loop_
 _symmetry_equiv_pos_site_id
 _symmetry_equiv_pos_as_xyz
  1  'x, y, z'
loop_
 _atom_site_type_symbol
 _atom_site_label
 _atom_site_symmetry_multiplicity
 _atom_site_fract_x
 _atom_site_fract_y
 _atom_site_fract_z
 _atom_site_occupancy
  Ge  Ge0  1  0.875000  0.125000  0.750000  1
  Ge  Ge1  1  0.125000  0.875000  0.250000  1
  Ge  Ge2  1  0.250000  0.625000  0.375000  1
  Ge  Ge3  1  0.125000  0.750000  0.875000  1
  Ge  Ge4  1  0.750000  0.875000  0.125000  1
  Ge  Ge5  1  0.375000  0.250000  0.625000  1
  Ge  Ge6  1  0.625000  0.750000  0.375000  1
  Ge  Ge7  1  0.875000  0.250000  0.125000  1
  Ge  Ge8  1  0.250000  0.125000  0.875000  1
  Ge  Ge9  1  0.750000  0.375000  0.625000  1
  Ge  Ge10  1  0.375000  0.625000  0.750000  1
  Ge  Ge11  1  0.625000  0.375000  0.250000  1
  W  W12  1  0.500000  0.500000  0.500000  1
  W  W13  1  0.500000  0.500000  0.000000  1
  W  W14  1  0.500000  0.000000  0.500000  1
  W  W15  1  0.000000  0.500000  0.500000  1
  W  W16  1  0.500000  0.000000  0.000000  1
  W  W17  1  0.000000  0.000000  0.500000  1
  W  W18  1  0.000000  0.500000  0.000000  1
  W  W19  1  0.000000  0.000000  0.000000  1
  O  O20  1  0.810815  0.420240  0.816232  1
  O  O21  1  0.079760  0.890576  0.395993  1
  O  O22  1  0.683768  0.104007  0.994582  1
  O  O23  1  0.689185  0.505418  0.609424  1
  O  O24  1  0.689185  0.683768  0.079760  1
  O  O25  1  0.505418  0.609424  0.689185  1
  O  O26  1  0.104007  0.609424  0.420240  1
  O  O27  1  0.609424  0.689185  0.505418  1
  O  O28  1  0.395993  0.816232  0.505418  1
  O  O29  1  0.890576  0.994582  0.810815  1
  O  O30  1  0.994582  0.810815  0.890576  1
  O  O31  1  0.079760  0.689185  0.683768  1
  O  O32  1  0.609424  0.420240  0.104007  1
  O  O33  1  0.505418  0.395993  0.816232  1
  O  O34  1  0.683768  0.079760  0.689185  1
  O  O35  1  0.420240  0.104007  0.609424  1
  O  O36  1  0.816232  0.505418  0.395993  1
  O  O37  1  0.395993  0.079760  0.890576  1
  O  O38  1  0.104007  0.994582  0.683768  1
  O  O39  1  0.604007  0.183768  0.494582  1
  O  O40  1  0.994582  0.683768  0.104007  1
  O  O41  1  0.816232  0.810815  0.420240  1
  O  O42  1  0.890576  0.395993  0.079760  1
  O  O43  1  0.810815  0.890576  0.994582  1
  O  O44  1  0.189185  0.579760  0.183768  1
  O  O45  1  0.920240  0.109424  0.604007  1
  O  O46  1  0.316232  0.895993  0.005418  1
  O  O47  1  0.310815  0.494582  0.390576  1
  O  O48  1  0.310815  0.316232  0.920240  1
  O  O49  1  0.494582  0.390576  0.310815  1
  O  O50  1  0.895993  0.390576  0.579760  1
  O  O51  1  0.390576  0.310815  0.494582  1
  O  O52  1  0.189185  0.109424  0.005418  1
  O  O53  1  0.109424  0.604007  0.920240  1
  O  O54  1  0.183768  0.189185  0.579760  1
  O  O55  1  0.579760  0.183768  0.189185  1
  O  O56  1  0.005418  0.316232  0.895993  1
  O  O57  1  0.895993  0.005418  0.316232  1
  O  O58  1  0.604007  0.920240  0.109424  1
  O  O59  1  0.183768  0.494582  0.604007  1
  O  O60  1  0.579760  0.895993  0.390576  1
  O  O61  1  0.316232  0.920240  0.310815  1
  O  O62  1  0.494582  0.604007  0.183768  1
  O  O63  1  0.390576  0.579760  0.895993  1
  O  O64  1  0.920240  0.310815  0.316232  1
  O  O65  1  0.005418  0.189185  0.109424  1
  O  O66  1  0.109424  0.005418  0.189185  1
  O  O67  1  0.420240  0.816232  0.810815  1
