# generated using pymatgen
data_Ba2Ti3AlO8
_symmetry_space_group_name_H-M   'P 1'
_cell_length_a   3.97099803
_cell_length_b   3.97099633
_cell_length_c   11.44916229
_cell_angle_alpha   90.00000826
_cell_angle_beta   90.00009151
_cell_angle_gamma   90.01092127
_symmetry_Int_Tables_number   1
_chemical_formula_structural   Ba2Ti3AlO8
_chemical_formula_sum   'Ba2 Ti3 Al1 O8'
_cell_volume   180.53975986
_cell_formula_units_Z   1
loop_
 _symmetry_equiv_pos_site_id
 _symmetry_equiv_pos_as_xyz
  1  'x, y, z'
loop_
 _atom_site_type_symbol
 _atom_site_label
 _atom_site_symmetry_multiplicity
 _atom_site_fract_x
 _atom_site_fract_y
 _atom_site_fract_z
 _atom_site_occupancy
  Ba  Ba0  1  0.499989  0.499995  0.174463  1
  Ba  Ba1  1  0.500002  0.500000  0.825504  1
  Ti  Ti2  1  0.000005  0.000004  0.354629  1
  Ti  Ti3  1  0.999997  0.000001  0.000036  1
  Ti  Ti4  1  -0.000002  0.000001  0.645215  1
  Al  Al5  1  0.500001  0.500003  0.499990  1
  O  O6  1  0.000005  0.499997  0.382797  1
  O  O7  1  0.499999  0.000002  0.382796  1
  O  O8  1  0.499997  -0.000003  -0.000041  1
  O  O9  1  -0.000003  0.999994  0.187310  1
  O  O10  1  0.000012  0.500002  0.617271  1
  O  O11  1  0.499998  0.000010  0.617271  1
  O  O12  1  0.000003  0.000001  0.812797  1
  O  O13  1  0.999996  0.499993  -0.000039  1
