# generated using pymatgen
data_VZnO2
_symmetry_space_group_name_H-M   'P 1'
_cell_length_a   3.05556252
_cell_length_b   8.46677119
_cell_length_c   7.62983969
_cell_angle_alpha   87.69793408
_cell_angle_beta   78.50962641
_cell_angle_gamma   79.38654468
_symmetry_Int_Tables_number   1
_chemical_formula_structural   VZnO2
_chemical_formula_sum   'V4 Zn4 O8'
_cell_volume   190.12314042
_cell_formula_units_Z   4
loop_
 _symmetry_equiv_pos_site_id
 _symmetry_equiv_pos_as_xyz
  1  'x, y, z'
loop_
 _atom_site_type_symbol
 _atom_site_label
 _atom_site_symmetry_multiplicity
 _atom_site_fract_x
 _atom_site_fract_y
 _atom_site_fract_z
 _atom_site_occupancy
  V  V0  1  0.646861  0.176044  0.516468  1
  V  V1  1  0.125921  0.508068  0.213621  1
  V  V2  1  0.843159  0.470417  0.817442  1
  V  V3  1  0.335793  0.807832  0.512152  1
  Zn  Zn4  1  0.349789  0.196844  0.117840  1
  Zn  Zn5  1  0.689871  0.783747  0.907782  1
  Zn  Zn6  1  0.032784  0.899333  0.142433  1
  Zn  Zn7  1  0.032066  0.072810  0.888372  1
  O  O8  1  0.813339  0.707053  0.658307  1
  O  O9  1  0.460419  0.348622  0.706301  1
  O  O10  1  0.507886  0.633915  0.319366  1
  O  O11  1  0.169014  0.276450  0.368673  1
  O  O12  1  0.153047  0.044013  0.640430  1
  O  O13  1  0.764366  0.376749  0.072729  1
  O  O14  1  0.832754  0.938713  0.387577  1
  O  O15  1  0.211204  0.598725  0.956126  1
