# generated using pymatgen
data_CaLa2SbO6
_symmetry_space_group_name_H-M   'P 1'
_cell_length_a   6.01460536
_cell_length_b   6.01460493
_cell_length_c   6.01460563
_cell_angle_alpha   60.80065855
_cell_angle_beta   60.80065978
_cell_angle_gamma   60.80066298
_symmetry_Int_Tables_number   1
_chemical_formula_structural   CaLa2SbO6
_chemical_formula_sum   'Ca1 La2 Sb1 O6'
_cell_volume   156.63158056
_cell_formula_units_Z   1
loop_
 _symmetry_equiv_pos_site_id
 _symmetry_equiv_pos_as_xyz
  1  'x, y, z'
loop_
 _atom_site_type_symbol
 _atom_site_label
 _atom_site_symmetry_multiplicity
 _atom_site_fract_x
 _atom_site_fract_y
 _atom_site_fract_z
 _atom_site_occupancy
  Ca  Ca0  1  0.500000  0.500000  0.500000  1
  La  La1  1  0.769403  0.769403  0.769403  1
  La  La2  1  0.230597  0.230597  0.230597  1
  Sb  Sb3  1  0.000000  0.000000  0.000000  1
  O  O4  1  0.353123  0.787154  0.124410  1
  O  O5  1  0.787154  0.124410  0.353123  1
  O  O6  1  0.124410  0.353123  0.787154  1
  O  O7  1  0.646877  0.212846  0.875590  1
  O  O8  1  0.875590  0.646877  0.212846  1
  O  O9  1  0.212846  0.875590  0.646877  1
