# generated using pymatgen
data_CaFeBiO5
_symmetry_space_group_name_H-M   'P 1'
_cell_length_a   5.91464512
_cell_length_b   8.85547449
_cell_length_c   10.55392858
_cell_angle_alpha   90.00000000
_cell_angle_beta   90.00000000
_cell_angle_gamma   112.24572178
_symmetry_Int_Tables_number   1
_chemical_formula_structural   CaFeBiO5
_chemical_formula_sum   'Ca4 Fe4 Bi4 O20'
_cell_volume   511.63868506
_cell_formula_units_Z   4
loop_
 _symmetry_equiv_pos_site_id
 _symmetry_equiv_pos_as_xyz
  1  'x, y, z'
loop_
 _atom_site_type_symbol
 _atom_site_label
 _atom_site_symmetry_multiplicity
 _atom_site_fract_x
 _atom_site_fract_y
 _atom_site_fract_z
 _atom_site_occupancy
  Ca  Ca0  1  0.647536  0.178499  0.902837  1
  Ca  Ca1  1  0.352464  0.821501  0.097163  1
  Ca  Ca2  1  0.852464  0.321501  0.402837  1
  Ca  Ca3  1  0.147536  0.678499  0.597163  1
  Fe  Fe4  1  0.826635  0.939474  0.617642  1
  Fe  Fe5  1  0.173365  0.060526  0.382358  1
  Fe  Fe6  1  0.673365  0.560526  0.117642  1
  Fe  Fe7  1  0.326635  0.439474  0.882358  1
  Bi  Bi8  1  0.141606  0.156552  0.098628  1
  Bi  Bi9  1  0.858394  0.843448  0.901372  1
  Bi  Bi10  1  0.641606  0.656552  0.401372  1
  Bi  Bi11  1  0.358394  0.343448  0.598628  1
  O  O12  1  0.494189  0.345896  0.045518  1
  O  O13  1  0.039454  0.315051  0.978463  1
  O  O14  1  0.518726  0.684503  0.220165  1
  O  O15  1  0.729620  0.512151  0.544688  1
  O  O16  1  0.797678  0.522740  0.280216  1
  O  O17  1  0.297678  0.022740  0.219784  1
  O  O18  1  0.539454  0.815051  0.521537  1
  O  O19  1  0.460546  0.184949  0.478463  1
  O  O20  1  0.270380  0.487849  0.455312  1
  O  O21  1  0.005811  0.154104  0.545518  1
  O  O22  1  0.202322  0.477260  0.719784  1
  O  O23  1  0.505811  0.654104  0.954482  1
  O  O24  1  0.994189  0.845896  0.454482  1
  O  O25  1  0.702322  0.977260  0.780216  1
  O  O26  1  0.770380  0.987849  0.044688  1
  O  O27  1  0.229620  0.012151  0.955312  1
  O  O28  1  0.481274  0.315497  0.779835  1
  O  O29  1  0.960546  0.684949  0.021537  1
  O  O30  1  0.981274  0.815497  0.720165  1
  O  O31  1  0.018726  0.184503  0.279835  1
