# generated using pymatgen
data_BaZnMoF7
_symmetry_space_group_name_H-M   'P 1'
_cell_length_a   5.78530850
_cell_length_b   9.91071579
_cell_length_c   10.25004418
_cell_angle_alpha   90.00000000
_cell_angle_beta   90.00000000
_cell_angle_gamma   92.65132779
_symmetry_Int_Tables_number   1
_chemical_formula_structural   BaZnMoF7
_chemical_formula_sum   'Ba4 Zn4 Mo4 F28'
_cell_volume   587.07303570
_cell_formula_units_Z   4
loop_
 _symmetry_equiv_pos_site_id
 _symmetry_equiv_pos_as_xyz
  1  'x, y, z'
loop_
 _atom_site_type_symbol
 _atom_site_label
 _atom_site_symmetry_multiplicity
 _atom_site_fract_x
 _atom_site_fract_y
 _atom_site_fract_z
 _atom_site_occupancy
  Ba  Ba0  1  0.264265  0.497120  0.323357  1
  Ba  Ba1  1  0.735735  0.002880  0.823357  1
  Ba  Ba2  1  0.735735  0.502880  0.676643  1
  Ba  Ba3  1  0.264265  0.997120  0.176643  1
  Zn  Zn4  1  0.691517  0.809346  0.397045  1
  Zn  Zn5  1  0.308483  0.690654  0.897045  1
  Zn  Zn6  1  0.691517  0.309346  0.102955  1
  Zn  Zn7  1  0.308483  0.190654  0.602955  1
  Mo  Mo8  1  0.195304  0.814665  0.611319  1
  Mo  Mo9  1  0.804696  0.185335  0.388681  1
  Mo  Mo10  1  0.195304  0.314665  0.888681  1
  Mo  Mo11  1  0.804696  0.685335  0.111319  1
  F  F12  1  0.128449  0.118902  0.447310  1
  F  F13  1  0.369245  0.375912  0.059898  1
  F  F14  1  0.492346  0.751355  0.711506  1
  F  F15  1  0.507654  0.248645  0.288494  1
  F  F16  1  0.896833  0.375789  0.460643  1
  F  F17  1  0.261781  0.506959  0.801215  1
  F  F18  1  0.020693  0.750282  0.784223  1
  F  F19  1  0.103167  0.124211  0.960643  1
  F  F20  1  0.369245  0.875912  0.440102  1
  F  F21  1  0.507654  0.748645  0.211506  1
  F  F22  1  0.128449  0.618902  0.052690  1
  F  F23  1  0.871551  0.881098  0.552690  1
  F  F24  1  0.979307  0.749718  0.284223  1
  F  F25  1  0.394977  0.873044  0.958003  1
  F  F26  1  0.103167  0.624211  0.539357  1
  F  F27  1  0.896833  0.875789  0.039357  1
  F  F28  1  0.979307  0.249718  0.215777  1
  F  F29  1  0.871551  0.381098  0.947310  1
  F  F30  1  0.605023  0.626956  0.458003  1
  F  F31  1  0.630755  0.624088  0.940102  1
  F  F32  1  0.605023  0.126956  0.041997  1
  F  F33  1  0.020693  0.250282  0.715777  1
  F  F34  1  0.394977  0.373044  0.541997  1
  F  F35  1  0.738219  0.993041  0.301215  1
  F  F36  1  0.738219  0.493041  0.198785  1
  F  F37  1  0.261781  0.006959  0.698785  1
  F  F38  1  0.630755  0.124088  0.559898  1
  F  F39  1  0.492346  0.251355  0.788494  1
