# generated using pymatgen
data_TiP2O7
_symmetry_space_group_name_H-M   'P 1'
_cell_length_a   6.44141472
_cell_length_b   6.34083094
_cell_length_c   6.94922050
_cell_angle_alpha   114.38290632
_cell_angle_beta   91.91942225
_cell_angle_gamma   84.26600890
_symmetry_Int_Tables_number   1
_chemical_formula_structural   TiP2O7
_chemical_formula_sum   'Ti2 P4 O14'
_cell_volume   257.21451631
_cell_formula_units_Z   2
loop_
 _symmetry_equiv_pos_site_id
 _symmetry_equiv_pos_as_xyz
  1  'x, y, z'
loop_
 _atom_site_type_symbol
 _atom_site_label
 _atom_site_symmetry_multiplicity
 _atom_site_fract_x
 _atom_site_fract_y
 _atom_site_fract_z
 _atom_site_occupancy
  Ti  Ti0  1  0.661658  0.087649  0.209280  1
  Ti  Ti1  1  0.338345  0.912351  0.790716  1
  P  P2  1  0.383314  0.339278  0.644966  1
  P  P3  1  0.616686  0.660723  0.355037  1
  P  P4  1  0.137459  0.235417  0.241079  1
  P  P5  1  0.862536  0.764604  0.758913  1
  O  O6  1  0.613684  0.400779  0.218643  1
  O  O7  1  0.909068  0.566230  0.814431  1
  O  O8  1  0.090939  0.433752  0.185578  1
  O  O9  1  0.051214  0.913702  0.775702  1
  O  O10  1  0.193883  0.303809  0.486084  1
  O  O11  1  0.348607  0.211308  0.783234  1
  O  O12  1  0.330550  0.058377  0.116187  1
  O  O13  1  0.386313  0.599221  0.781357  1
  O  O14  1  0.806114  0.696185  0.513922  1
  O  O15  1  0.579463  0.230750  0.504442  1
  O  O16  1  0.948785  0.086297  0.224296  1
  O  O17  1  0.669452  0.941616  0.883814  1
  O  O18  1  0.651394  0.788696  0.216766  1
  O  O19  1  0.420537  0.769255  0.495555  1
