# generated using pymatgen
data_CaTi4O6
_symmetry_space_group_name_H-M   'P 1'
_cell_length_a   3.06817747
_cell_length_b   5.18795442
_cell_length_c   15.13394207
_cell_angle_alpha   90.00000000
_cell_angle_beta   90.00000000
_cell_angle_gamma   107.19963481
_symmetry_Int_Tables_number   1
_chemical_formula_structural   CaTi4O6
_chemical_formula_sum   'Ca2 Ti8 O12'
_cell_volume   230.12271690
_cell_formula_units_Z   2
loop_
 _symmetry_equiv_pos_site_id
 _symmetry_equiv_pos_as_xyz
  1  'x, y, z'
loop_
 _atom_site_type_symbol
 _atom_site_label
 _atom_site_symmetry_multiplicity
 _atom_site_fract_x
 _atom_site_fract_y
 _atom_site_fract_z
 _atom_site_occupancy
  Ca  Ca0  1  0.653692  0.307387  0.750000  1
  Ca  Ca1  1  0.346308  0.692613  0.250000  1
  Ti  Ti2  1  0.850150  0.700303  0.039997  1
  Ti  Ti3  1  0.398303  0.796605  0.626631  1
  Ti  Ti4  1  0.149848  0.299696  0.960003  1
  Ti  Ti5  1  0.601697  0.203395  0.373370  1
  Ti  Ti6  1  0.850150  0.700303  0.460003  1
  Ti  Ti7  1  0.149848  0.299696  0.539997  1
  Ti  Ti8  1  0.601697  0.203395  0.126630  1
  Ti  Ti9  1  0.398303  0.796605  0.873369  1
  O  O10  1  0.499999  -0.000000  0.500000  1
  O  O11  1  0.499999  -0.000000  -0.000000  1
  O  O12  1  0.036019  0.072036  0.846095  1
  O  O13  1  0.963981  0.927964  0.153906  1
  O  O14  1  0.963981  0.927964  0.346094  1
  O  O15  1  0.036019  0.072036  0.653906  1
  O  O16  1  0.764279  0.528560  0.906488  1
  O  O17  1  0.235720  0.471441  0.093512  1
  O  O18  1  0.235720  0.471441  0.406488  1
  O  O19  1  0.764279  0.528560  0.593512  1
  O  O20  1  0.332789  0.665578  0.750000  1
  O  O21  1  0.667209  0.334421  0.250000  1
