# generated using pymatgen
data_CrSiO5
_symmetry_space_group_name_H-M   'P 1'
_cell_length_a   5.16872341
_cell_length_b   8.36714821
_cell_length_c   7.65290060
_cell_angle_alpha   90.12147248
_cell_angle_beta   42.19357795
_cell_angle_gamma   69.64970099
_symmetry_Int_Tables_number   1
_chemical_formula_structural   CrSiO5
_chemical_formula_sum   'Cr2 Si2 O10'
_cell_volume   189.85711600
_cell_formula_units_Z   2
loop_
 _symmetry_equiv_pos_site_id
 _symmetry_equiv_pos_as_xyz
  1  'x, y, z'
loop_
 _atom_site_type_symbol
 _atom_site_label
 _atom_site_symmetry_multiplicity
 _atom_site_fract_x
 _atom_site_fract_y
 _atom_site_fract_z
 _atom_site_occupancy
  Cr  Cr0  1  0.499872  0.528104  0.022027  1
  Cr  Cr1  1  0.500848  0.027821  0.968769  1
  Si  Si2  1  0.490452  0.238508  0.318565  1
  Si  Si3  1  0.487235  0.737496  0.683739  1
  O  O4  1  0.339736  0.118202  0.270991  1
  O  O5  1  0.654180  0.354774  0.117634  1
  O  O6  1  0.648517  0.855492  0.721390  1
  O  O7  1  0.335277  0.618372  0.883039  1
  O  O8  1  0.919507  0.590547  0.345472  1
  O  O9  1  0.074522  0.877069  0.761550  1
  O  O10  1  0.073620  0.380194  0.654037  1
  O  O11  1  0.917717  0.092984  0.228664  1
  O  O12  1  0.520294  0.692251  0.104930  1
  O  O13  1  0.526081  0.190404  0.863080  1
