# generated using pymatgen
data_BaCu4O7
_symmetry_space_group_name_H-M   'P 1'
_cell_length_a   6.39614214
_cell_length_b   6.39614261
_cell_length_c   10.32056890
_cell_angle_alpha   90.00000000
_cell_angle_beta   90.00000000
_cell_angle_gamma   120.00000168
_symmetry_Int_Tables_number   1
_chemical_formula_structural   BaCu4O7
_chemical_formula_sum   'Ba2 Cu8 O14'
_cell_volume   365.65414964
_cell_formula_units_Z   2
loop_
 _symmetry_equiv_pos_site_id
 _symmetry_equiv_pos_as_xyz
  1  'x, y, z'
loop_
 _atom_site_type_symbol
 _atom_site_label
 _atom_site_symmetry_multiplicity
 _atom_site_fract_x
 _atom_site_fract_y
 _atom_site_fract_z
 _atom_site_occupancy
  Ba  Ba0  1  0.666667  0.333333  0.492516  1
  Ba  Ba1  1  0.333333  0.666667  0.992516  1
  Cu  Cu2  1  0.830375  0.169626  0.190141  1
  Cu  Cu3  1  0.660749  0.830374  0.690142  1
  Cu  Cu4  1  0.169626  0.339251  0.690142  1
  Cu  Cu5  1  0.830375  0.660749  0.190141  1
  Cu  Cu6  1  0.339250  0.169626  0.190141  1
  Cu  Cu7  1  0.169626  0.830374  0.690142  1
  Cu  Cu8  1  0.000000  0.000000  0.437385  1
  Cu  Cu9  1  0.000000  0.000000  0.937385  1
  O  O10  1  0.848336  0.151665  0.012545  1
  O  O11  1  0.696672  0.848335  0.512544  1
  O  O12  1  0.151664  0.303327  0.512544  1
  O  O13  1  0.848337  0.696673  0.012545  1
  O  O14  1  0.303327  0.151665  0.012545  1
  O  O15  1  0.151664  0.848335  0.512544  1
  O  O16  1  0.000000  0.000000  0.752722  1
  O  O17  1  0.000000  0.000000  0.252723  1
  O  O18  1  0.518688  0.481314  0.254456  1
  O  O19  1  0.037374  0.518688  0.754456  1
  O  O20  1  0.481313  0.962626  0.754456  1
  O  O21  1  0.518688  0.037374  0.254456  1
  O  O22  1  0.481314  0.518688  0.754456  1
  O  O23  1  0.962626  0.481314  0.254456  1
