# generated using pymatgen
data_Ca(SnO2)4
_symmetry_space_group_name_H-M   'P 1'
_cell_length_a   3.28117339
_cell_length_b   7.83477267
_cell_length_c   8.33828537
_cell_angle_alpha   76.49551345
_cell_angle_beta   78.65286857
_cell_angle_gamma   77.91055168
_symmetry_Int_Tables_number   1
_chemical_formula_structural   Ca(SnO2)4
_chemical_formula_sum   'Ca1 Sn4 O8'
_cell_volume   201.32626233
_cell_formula_units_Z   1
loop_
 _symmetry_equiv_pos_site_id
 _symmetry_equiv_pos_as_xyz
  1  'x, y, z'
loop_
 _atom_site_type_symbol
 _atom_site_label
 _atom_site_symmetry_multiplicity
 _atom_site_fract_x
 _atom_site_fract_y
 _atom_site_fract_z
 _atom_site_occupancy
  Ca  Ca0  1  0.362302  0.101316  0.174406  1
  Sn  Sn1  1  0.629975  0.173017  0.567169  1
  Sn  Sn2  1  0.110462  0.562039  0.216916  1
  Sn  Sn3  1  0.850010  0.455830  0.844489  1
  Sn  Sn4  1  0.335608  0.809084  0.519556  1
  O  O5  1  0.867057  0.654848  0.610984  1
  O  O6  1  0.465499  0.326380  0.743029  1
  O  O7  1  0.486177  0.745175  0.282476  1
  O  O8  1  0.135188  0.299487  0.430104  1
  O  O9  1  0.164570  0.999401  0.671560  1
  O  O10  1  0.838263  0.266664  0.057106  1
  O  O11  1  0.805440  0.989320  0.399913  1
  O  O12  1  0.246932  0.593547  0.912940  1
