# generated using pymatgen
data_Ti2Zn2O5
_symmetry_space_group_name_H-M   'P 1'
_cell_length_a   3.53795655
_cell_length_b   5.44535630
_cell_length_c   11.03561565
_cell_angle_alpha   89.98311893
_cell_angle_beta   90.00005813
_cell_angle_gamma   90.00082740
_symmetry_Int_Tables_number   1
_chemical_formula_structural   Ti2Zn2O5
_chemical_formula_sum   'Ti4 Zn4 O10'
_cell_volume   212.60591572
_cell_formula_units_Z   2
loop_
 _symmetry_equiv_pos_site_id
 _symmetry_equiv_pos_as_xyz
  1  'x, y, z'
loop_
 _atom_site_type_symbol
 _atom_site_label
 _atom_site_symmetry_multiplicity
 _atom_site_fract_x
 _atom_site_fract_y
 _atom_site_fract_z
 _atom_site_occupancy
  Ti  Ti0  1  0.000004  0.280960  0.637562  1
  Ti  Ti1  1  0.999999  0.719111  0.361941  1
  Ti  Ti2  1  0.999999  0.219414  0.137726  1
  Ti  Ti3  1  0.000003  0.781474  0.861845  1
  Zn  Zn4  1  0.499996  0.272883  0.894915  1
  Zn  Zn5  1  0.500004  0.727252  0.104874  1
  Zn  Zn6  1  0.499997  0.772818  0.605384  1
  Zn  Zn7  1  0.500004  0.226842  0.395366  1
  O  O8  1  -0.000000  0.498773  0.498609  1
  O  O9  1  0.000005  0.094445  0.295705  1
  O  O10  1  0.000004  0.594172  0.204994  1
  O  O11  1  0.999995  0.406386  0.795640  1
  O  O12  1  0.500001  0.327537  0.086099  1
  O  O13  1  0.500000  0.672401  0.914001  1
  O  O14  1  0.999996  0.906289  0.704957  1
  O  O15  1  0.500000  0.172676  0.585979  1
  O  O16  1  0.000003  0.999031  0.000424  1
  O  O17  1  0.500000  0.827536  0.413978  1
