# generated using pymatgen
data_Zn2Sn3O8
_symmetry_space_group_name_H-M   'P 1'
_cell_length_a   6.33491001
_cell_length_b   6.33491029
_cell_length_c   9.50612071
_cell_angle_alpha   90.00000000
_cell_angle_beta   90.00000000
_cell_angle_gamma   119.99999859
_symmetry_Int_Tables_number   1
_chemical_formula_structural   Zn2Sn3O8
_chemical_formula_sum   'Zn4 Sn6 O16'
_cell_volume   330.38086177
_cell_formula_units_Z   2
loop_
 _symmetry_equiv_pos_site_id
 _symmetry_equiv_pos_as_xyz
  1  'x, y, z'
loop_
 _atom_site_type_symbol
 _atom_site_label
 _atom_site_symmetry_multiplicity
 _atom_site_fract_x
 _atom_site_fract_y
 _atom_site_fract_z
 _atom_site_occupancy
  Zn  Zn0  1  0.666667  0.333334  0.040117  1
  Zn  Zn1  1  0.333333  0.666666  0.540118  1
  Zn  Zn2  1  0.666667  0.333334  0.404554  1
  Zn  Zn3  1  0.333333  0.666666  0.904555  1
  Sn  Sn4  1  0.671848  0.835925  0.244672  1
  Sn  Sn5  1  0.835926  0.164076  0.744672  1
  Sn  Sn6  1  0.164076  0.328153  0.244672  1
  Sn  Sn7  1  0.835924  0.671848  0.744672  1
  Sn  Sn8  1  0.328153  0.164076  0.744672  1
  Sn  Sn9  1  0.164076  0.835925  0.244672  1
  O  O10  1  0.833522  0.166479  0.139563  1
  O  O11  1  0.667043  0.833522  0.639562  1
  O  O12  1  0.166479  0.332958  0.639562  1
  O  O13  1  0.833521  0.667043  0.139563  1
  O  O14  1  0.332957  0.166479  0.139563  1
  O  O15  1  0.166479  0.833522  0.639562  1
  O  O16  1  0.516384  0.483615  0.870455  1
  O  O17  1  0.032768  0.516384  0.370454  1
  O  O18  1  0.483616  0.967233  0.370454  1
  O  O19  1  0.516384  0.032768  0.870455  1
  O  O20  1  0.000000  0.000000  0.358018  1
  O  O21  1  0.000000  0.000000  0.858018  1
  O  O22  1  0.333333  0.666666  0.126745  1
  O  O23  1  0.967231  0.483615  0.870455  1
  O  O24  1  0.483615  0.516384  0.370454  1
  O  O25  1  0.666667  0.333334  0.626745  1
