# generated using pymatgen
data_V2ZnO5
_symmetry_space_group_name_H-M   'P 1'
_cell_length_a   3.46225971
_cell_length_b   4.90784493
_cell_length_c   11.69937464
_cell_angle_alpha   89.99840402
_cell_angle_beta   89.99984687
_cell_angle_gamma   90.00058246
_symmetry_Int_Tables_number   1
_chemical_formula_structural   V2ZnO5
_chemical_formula_sum   'V4 Zn2 O10'
_cell_volume   198.79850873
_cell_formula_units_Z   2
loop_
 _symmetry_equiv_pos_site_id
 _symmetry_equiv_pos_as_xyz
  1  'x, y, z'
loop_
 _atom_site_type_symbol
 _atom_site_label
 _atom_site_symmetry_multiplicity
 _atom_site_fract_x
 _atom_site_fract_y
 _atom_site_fract_z
 _atom_site_occupancy
  V  V0  1  0.250008  0.393405  0.098502  1
  V  V1  1  0.750004  0.606605  0.901508  1
  V  V2  1  0.750006  0.606571  0.598485  1
  V  V3  1  0.250005  0.393366  0.401496  1
  Zn  Zn4  1  0.749999  0.816697  0.250006  1
  Zn  Zn5  1  0.249994  0.183327  0.750015  1
  O  O6  1  0.749996  0.419529  0.749994  1
  O  O7  1  0.249998  0.580455  0.249997  1
  O  O8  1  0.750000  0.559584  0.073708  1
  O  O9  1  0.249998  0.440394  0.926291  1
  O  O10  1  0.750000  0.559586  0.426296  1
  O  O11  1  0.250004  0.440383  0.573715  1
  O  O12  1  0.249994  0.061128  0.366859  1
  O  O13  1  0.750000  0.938917  0.633136  1
  O  O14  1  0.749991  0.938903  0.866844  1
  O  O15  1  0.249995  0.061151  0.133147  1
