# generated using pymatgen
data_Ba2Mn2F11
_symmetry_space_group_name_H-M   'P 1'
_cell_length_a   7.73605952
_cell_length_b   7.73605958
_cell_length_c   14.08752258
_cell_angle_alpha   90.00000000
_cell_angle_beta   90.00000000
_cell_angle_gamma   119.99999867
_symmetry_Int_Tables_number   1
_chemical_formula_structural   Ba2Mn2F11
_chemical_formula_sum   'Ba6 Mn6 F33'
_cell_volume   730.13786446
_cell_formula_units_Z   3
loop_
 _symmetry_equiv_pos_site_id
 _symmetry_equiv_pos_as_xyz
  1  'x, y, z'
loop_
 _atom_site_type_symbol
 _atom_site_label
 _atom_site_symmetry_multiplicity
 _atom_site_fract_x
 _atom_site_fract_y
 _atom_site_fract_z
 _atom_site_occupancy
  Ba  Ba0  1  0.538485  0.163956  0.662846  1
  Ba  Ba1  1  0.149448  0.413496  0.815483  1
  Ba  Ba2  1  0.625470  0.461515  0.996179  1
  Ba  Ba3  1  0.586504  0.735951  0.482149  1
  Ba  Ba4  1  0.264049  0.850552  0.148816  1
  Ba  Ba5  1  0.836044  0.374530  0.329512  1
  Mn  Mn6  1  0.540246  0.960911  0.906893  1
  Mn  Mn7  1  0.850080  0.804342  0.722075  1
  Mn  Mn8  1  0.195658  0.045738  0.388741  1
  Mn  Mn9  1  0.420666  0.459754  0.240226  1
  Mn  Mn10  1  0.954262  0.149920  0.055408  1
  Mn  Mn11  1  0.039089  0.579334  0.573559  1
  F  F12  1  0.677523  0.046135  0.031131  1
  F  F13  1  0.440598  0.697226  0.945597  1
  F  F14  1  0.368612  0.322477  0.364464  1
  F  F15  1  0.135033  0.515918  0.467139  1
  F  F16  1  0.521936  0.300763  0.191348  1
  F  F17  1  0.925903  0.577393  0.176173  1
  F  F18  1  0.484082  0.619115  0.133806  1
  F  F19  1  0.422607  0.348511  0.842840  1
  F  F20  1  0.778827  0.478064  0.524681  1
  F  F21  1  0.219263  0.255889  0.079398  1
  F  F22  1  0.380885  0.864967  0.800473  1
  F  F23  1  0.953865  0.631388  0.697798  1
  F  F24  1  0.359585  0.024092  0.984581  1
  F  F25  1  0.996426  0.399975  0.014301  1
  F  F26  1  0.664507  0.640415  0.317914  1
  F  F27  1  0.302774  0.743373  0.612263  1
  F  F28  1  0.975681  0.101227  0.929935  1
  F  F29  1  0.036626  0.780737  0.412731  1
  F  F30  1  0.990995  0.091707  0.414476  1
  F  F31  1  0.975908  0.335493  0.651247  1
  F  F32  1  0.100712  0.009005  0.747810  1
  F  F33  1  0.600024  0.596451  0.680968  1
  F  F34  1  0.403549  0.003574  0.347634  1
  F  F35  1  0.125545  0.024319  0.263268  1
  F  F36  1  0.744111  0.963374  0.746065  1
  F  F37  1  0.699236  0.221173  0.858015  1
  F  F38  1  0.256627  0.559402  0.278930  1
  F  F39  1  0.811430  0.711068  0.844693  1
  F  F40  1  0.899637  0.188570  0.178026  1
  F  F41  1  0.908293  0.899288  0.081143  1
  F  F42  1  0.651489  0.074097  0.509506  1
  F  F43  1  0.898773  0.874455  0.596601  1
  F  F44  1  0.288932  0.100363  0.511359  1
