# generated using pymatgen
data_ZnCr2O7
_symmetry_space_group_name_H-M   'P 1'
_cell_length_a   7.09177929
_cell_length_b   6.19673301
_cell_length_c   8.15865849
_cell_angle_alpha   117.62880370
_cell_angle_beta   90.00000000
_cell_angle_gamma   90.00000000
_symmetry_Int_Tables_number   1
_chemical_formula_structural   ZnCr2O7
_chemical_formula_sum   'Zn2 Cr4 O14'
_cell_volume   317.65525277
_cell_formula_units_Z   2
loop_
 _symmetry_equiv_pos_site_id
 _symmetry_equiv_pos_as_xyz
  1  'x, y, z'
loop_
 _atom_site_type_symbol
 _atom_site_label
 _atom_site_symmetry_multiplicity
 _atom_site_fract_x
 _atom_site_fract_y
 _atom_site_fract_z
 _atom_site_occupancy
  Zn  Zn0  1  0.843837  0.546128  0.663352  1
  Zn  Zn1  1  0.343837  0.453872  0.336648  1
  Cr  Cr2  1  0.865202  0.310271  0.211142  1
  Cr  Cr3  1  0.365202  0.689729  0.788858  1
  Cr  Cr4  1  0.321399  0.868956  0.217252  1
  Cr  Cr5  1  0.821399  0.131044  0.782748  1
  O  O6  1  0.644082  0.050106  0.649200  1
  O  O7  1  0.144081  0.949894  0.350800  1
  O  O8  1  0.252681  0.530942  0.586789  1
  O  O9  1  0.752681  0.469058  0.413211  1
  O  O10  1  0.958659  0.311157  0.731048  1
  O  O11  1  0.458659  0.688843  0.268952  1
  O  O12  1  0.580949  0.581142  0.773771  1
  O  O13  1  0.080949  0.418858  0.226229  1
  O  O14  1  0.935891  0.885050  0.763567  1
  O  O15  1  0.435891  0.114950  0.236433  1
  O  O16  1  0.744142  0.303001  0.016777  1
  O  O17  1  0.244142  0.696999  0.983223  1
  O  O18  1  0.878214  0.033026  0.170708  1
  O  O19  1  0.378214  0.966974  0.829292  1
