# generated using pymatgen
data_TaZn2WO6
_symmetry_space_group_name_H-M   'P 1'
_cell_length_a   5.66347831
_cell_length_b   5.58534250
_cell_length_c   8.05615964
_cell_angle_alpha   89.92732291
_cell_angle_beta   135.33623603
_cell_angle_gamma   119.46714307
_symmetry_Int_Tables_number   1
_chemical_formula_structural   TaZn2WO6
_chemical_formula_sum   'Ta1 Zn2 W1 O6'
_cell_volume   128.18745284
_cell_formula_units_Z   1
loop_
 _symmetry_equiv_pos_site_id
 _symmetry_equiv_pos_as_xyz
  1  'x, y, z'
loop_
 _atom_site_type_symbol
 _atom_site_label
 _atom_site_symmetry_multiplicity
 _atom_site_fract_x
 _atom_site_fract_y
 _atom_site_fract_z
 _atom_site_occupancy
  Ta  Ta0  1  0.000228  0.985971  0.499215  1
  Zn  Zn1  1  0.989462  0.528043  0.244526  1
  Zn  Zn2  1  0.985077  0.536995  0.741348  1
  W  W3  1  0.001332  0.983735  0.001040  1
  O  O4  1  0.012203  0.971237  0.258558  1
  O  O5  1  0.003817  0.958891  0.750164  1
  O  O6  1  0.514194  0.476558  0.255903  1
  O  O7  1  0.486339  0.954885  0.743549  1
  O  O8  1  0.500620  0.975543  0.250843  1
  O  O9  1  0.520041  0.475336  0.762517  1
