# generated using pymatgen
data_BaV4O8
_symmetry_space_group_name_H-M   'P 1'
_cell_length_a   5.71436913
_cell_length_b   5.71436893
_cell_length_c   7.94998984
_cell_angle_alpha   90.00000000
_cell_angle_beta   90.00000000
_cell_angle_gamma   119.99999139
_symmetry_Int_Tables_number   1
_chemical_formula_structural   BaV4O8
_chemical_formula_sum   'Ba1 V4 O8'
_cell_volume   224.81941316
_cell_formula_units_Z   1
loop_
 _symmetry_equiv_pos_site_id
 _symmetry_equiv_pos_as_xyz
  1  'x, y, z'
loop_
 _atom_site_type_symbol
 _atom_site_label
 _atom_site_symmetry_multiplicity
 _atom_site_fract_x
 _atom_site_fract_y
 _atom_site_fract_z
 _atom_site_occupancy
  Ba  Ba0  1  0.000000  0.000000  0.000000  1
  V  V1  1  0.333333  0.666667  0.765187  1
  V  V2  1  0.666667  0.333333  0.765187  1
  V  V3  1  0.333333  0.666667  0.234813  1
  V  V4  1  0.666667  0.333333  0.234813  1
  O  O5  1  0.368941  0.368941  0.714362  1
  O  O6  1  0.631059  0.000000  0.714362  1
  O  O7  1  0.000000  0.631059  0.714362  1
  O  O8  1  0.631059  0.631059  0.285638  1
  O  O9  1  1.000000  0.368941  0.285638  1
  O  O10  1  0.368941  1.000000  0.285638  1
  O  O11  1  0.333333  0.666667  0.000000  1
  O  O12  1  0.666667  0.333333  0.000000  1
