# generated using pymatgen
data_Ti(BiO3)2
_symmetry_space_group_name_H-M   'P 1'
_cell_length_a   3.70511109
_cell_length_b   3.70512833
_cell_length_c   9.50793801
_cell_angle_alpha   90.00015996
_cell_angle_beta   90.00013595
_cell_angle_gamma   89.99997062
_symmetry_Int_Tables_number   1
_chemical_formula_structural   Ti(BiO3)2
_chemical_formula_sum   'Ti1 Bi2 O6'
_cell_volume   130.52413692
_cell_formula_units_Z   1
loop_
 _symmetry_equiv_pos_site_id
 _symmetry_equiv_pos_as_xyz
  1  'x, y, z'
loop_
 _atom_site_type_symbol
 _atom_site_label
 _atom_site_symmetry_multiplicity
 _atom_site_fract_x
 _atom_site_fract_y
 _atom_site_fract_z
 _atom_site_occupancy
  Ti  Ti0  1  0.500000  0.500002  0.790728  1
  Bi  Bi1  1  0.000001  -0.000000  0.464019  1
  Bi  Bi2  1  0.000014  0.000020  0.024436  1
  O  O3  1  0.500000  0.500001  0.607643  1
  O  O4  1  1.000000  0.499999  0.334448  1
  O  O5  1  0.499997  0.999999  0.855889  1
  O  O6  1  0.499999  1.000000  0.334448  1
  O  O7  1  0.499990  0.499982  0.061618  1
  O  O8  1  0.999999  0.499996  0.855889  1
