# generated using pymatgen
data_Mg2SnN2
_symmetry_space_group_name_H-M   'P 1'
_cell_length_a   4.23577888
_cell_length_b   5.55947334
_cell_length_c   7.42102406
_cell_angle_alpha   60.35627993
_cell_angle_beta   73.46406925
_cell_angle_gamma   67.52109954
_symmetry_Int_Tables_number   1
_chemical_formula_structural   Mg2SnN2
_chemical_formula_sum   'Mg4 Sn2 N4'
_cell_volume   139.34706243
_cell_formula_units_Z   2
loop_
 _symmetry_equiv_pos_site_id
 _symmetry_equiv_pos_as_xyz
  1  'x, y, z'
loop_
 _atom_site_type_symbol
 _atom_site_label
 _atom_site_symmetry_multiplicity
 _atom_site_fract_x
 _atom_site_fract_y
 _atom_site_fract_z
 _atom_site_occupancy
  Mg  Mg0  1  0.660727  0.214464  0.458353  1
  Mg  Mg1  1  0.333444  0.786243  0.540190  1
  Mg  Mg2  1  0.996438  0.707147  0.291956  1
  Mg  Mg3  1  -0.002732  0.294968  0.706564  1
  Sn  Sn4  1  0.346744  0.273089  0.077406  1
  Sn  Sn5  1  0.695991  0.730109  0.921348  1
  N  N6  1  0.162515  0.254946  0.410006  1
  N  N7  1  0.828229  0.747083  0.588520  1
  N  N8  1  0.505884  0.203890  0.772251  1
  N  N9  1  0.478436  0.799440  0.225700  1
