# generated using pymatgen
data_LaMgCrNiO6
_symmetry_space_group_name_H-M   'P 1'
_cell_length_a   5.30981114
_cell_length_b   5.43405887
_cell_length_c   7.68251173
_cell_angle_alpha   90.00000000
_cell_angle_beta   90.14876359
_cell_angle_gamma   90.00000000
_symmetry_Int_Tables_number   1
_chemical_formula_structural   LaMgCrNiO6
_chemical_formula_sum   'La2 Mg2 Cr2 Ni2 O12'
_cell_volume   221.66911213
_cell_formula_units_Z   2
loop_
 _symmetry_equiv_pos_site_id
 _symmetry_equiv_pos_as_xyz
  1  'x, y, z'
loop_
 _atom_site_type_symbol
 _atom_site_label
 _atom_site_symmetry_multiplicity
 _atom_site_fract_x
 _atom_site_fract_y
 _atom_site_fract_z
 _atom_site_occupancy
  La  La0  1  0.005858  0.953202  0.749159  1
  La  La1  1  0.505858  0.546798  0.249159  1
  Mg  Mg2  1  0.479492  0.445364  0.761257  1
  Mg  Mg3  1  0.979492  0.054636  0.261257  1
  Cr  Cr4  1  0.493230  0.011725  0.500185  1
  Cr  Cr5  1  0.993230  0.488275  0.000185  1
  Ni  Ni6  1  0.494920  0.998106  0.000178  1
  Ni  Ni7  1  0.994920  0.501894  0.500178  1
  O  O8  1  0.076650  0.445776  0.240244  1
  O  O9  1  0.209226  0.242268  0.942674  1
  O  O10  1  0.226828  0.217617  0.549590  1
  O  O11  1  0.306725  0.687542  0.939667  1
  O  O12  1  0.338764  0.710236  0.555990  1
  O  O13  1  0.368305  0.978115  0.261057  1
  O  O14  1  0.576650  0.054224  0.740244  1
  O  O15  1  0.709227  0.257732  0.442674  1
  O  O16  1  0.726828  0.282383  0.049590  1
  O  O17  1  0.806725  0.812458  0.439667  1
  O  O18  1  0.838764  0.789764  0.055990  1
  O  O19  1  0.868305  0.521885  0.761057  1
