# generated using pymatgen
data_CaCr2O4
_symmetry_space_group_name_H-M   'P 1'
_cell_length_a   3.10378107
_cell_length_b   7.80598756
_cell_length_c   7.06250016
_cell_angle_alpha   78.60481729
_cell_angle_beta   77.32947397
_cell_angle_gamma   78.54537787
_symmetry_Int_Tables_number   1
_chemical_formula_structural   CaCr2O4
_chemical_formula_sum   'Ca2 Cr4 O8'
_cell_volume   161.48238202
_cell_formula_units_Z   2
loop_
 _symmetry_equiv_pos_site_id
 _symmetry_equiv_pos_as_xyz
  1  'x, y, z'
loop_
 _atom_site_type_symbol
 _atom_site_label
 _atom_site_symmetry_multiplicity
 _atom_site_fract_x
 _atom_site_fract_y
 _atom_site_fract_z
 _atom_site_occupancy
  Ca  Ca0  1  0.346753  0.154887  0.156350  1
  Ca  Ca1  1  0.653717  0.823310  0.876594  1
  Cr  Cr2  1  0.638789  0.166578  0.564697  1
  Cr  Cr3  1  0.141617  0.517991  0.208929  1
  Cr  Cr4  1  0.863484  0.460364  0.824408  1
  Cr  Cr5  1  0.362341  0.811454  0.468244  1
  O  O6  1  0.865036  0.676070  0.599332  1
  O  O7  1  0.461489  0.296527  0.791683  1
  O  O8  1  0.542934  0.681589  0.241497  1
  O  O9  1  0.136988  0.301730  0.433654  1
  O  O10  1  0.163861  0.993457  0.685871  1
  O  O11  1  0.763414  0.368135  0.113325  1
  O  O12  1  0.836506  0.984594  0.346904  1
  O  O13  1  0.239382  0.610115  0.919955  1
