# generated using pymatgen
data_ZnSn3(P2O7)2
_symmetry_space_group_name_H-M   'P 1'
_cell_length_a   8.13510633
_cell_length_b   8.26691478
_cell_length_c   10.04028311
_cell_angle_alpha   90.00000000
_cell_angle_beta   103.76834252
_cell_angle_gamma   90.00000000
_symmetry_Int_Tables_number   1
_chemical_formula_structural   ZnSn3(P2O7)2
_chemical_formula_sum   'Zn2 Sn6 P8 O28'
_cell_volume   655.82928801
_cell_formula_units_Z   2
loop_
 _symmetry_equiv_pos_site_id
 _symmetry_equiv_pos_as_xyz
  1  'x, y, z'
loop_
 _atom_site_type_symbol
 _atom_site_label
 _atom_site_symmetry_multiplicity
 _atom_site_fract_x
 _atom_site_fract_y
 _atom_site_fract_z
 _atom_site_occupancy
  Zn  Zn0  1  0.500000  0.000000  -0.000000  1
  Zn  Zn1  1  0.500000  0.500000  0.500000  1
  Sn  Sn2  1  0.196944  0.862630  0.517164  1
  Sn  Sn3  1  0.803056  0.362630  0.982836  1
  Sn  Sn4  1  0.803056  0.137370  0.482836  1
  Sn  Sn5  1  0.196944  0.637370  0.017164  1
  Sn  Sn6  1  0.000000  0.000000  -0.000000  1
  Sn  Sn7  1  0.000000  0.500000  0.500000  1
  P  P8  1  0.560698  0.038141  0.705909  1
  P  P9  1  0.439302  0.538141  0.794091  1
  P  P10  1  0.439302  0.961859  0.294091  1
  P  P11  1  0.560698  0.461859  0.205909  1
  P  P12  1  0.819277  0.796914  0.674071  1
  P  P13  1  0.180723  0.296914  0.825929  1
  P  P14  1  0.180723  0.203086  0.325929  1
  P  P15  1  0.819277  0.703086  0.174071  1
  O  O16  1  0.782409  0.634282  0.599811  1
  O  O17  1  0.217591  0.134282  0.900189  1
  O  O18  1  0.217591  0.365718  0.400189  1
  O  O19  1  0.782409  0.865718  0.099811  1
  O  O20  1  0.390408  0.557006  0.635362  1
  O  O21  1  0.609592  0.057006  0.864638  1
  O  O22  1  0.609592  0.442994  0.364638  1
  O  O23  1  0.390408  0.942994  0.135362  1
  O  O24  1  0.651548  0.169175  0.642536  1
  O  O25  1  0.348452  0.669175  0.857464  1
  O  O26  1  0.348452  0.830825  0.357464  1
  O  O27  1  0.651548  0.330825  0.142536  1
  O  O28  1  0.629289  0.864111  0.671053  1
  O  O29  1  0.370711  0.364111  0.828947  1
  O  O30  1  0.370711  0.135889  0.328947  1
  O  O31  1  0.629289  0.635889  0.171053  1
  O  O32  1  0.370350  0.469904  0.148628  1
  O  O33  1  0.629650  0.969904  0.351372  1
  O  O34  1  0.629650  0.530096  0.851372  1
  O  O35  1  0.370350  0.030096  0.648628  1
  O  O36  1  0.078165  0.207433  0.178533  1
  O  O37  1  0.921835  0.707433  0.321467  1
  O  O38  1  0.921835  0.792567  0.821467  1
  O  O39  1  0.078165  0.292567  0.678533  1
  O  O40  1  0.900357  0.577961  0.091628  1
  O  O41  1  0.099643  0.077961  0.408372  1
  O  O42  1  0.099643  0.422039  0.908372  1
  O  O43  1  0.900357  0.922039  0.591628  1
