# generated using pymatgen
data_Zn(CoO2)2
_symmetry_space_group_name_H-M   'P 1'
_cell_length_a   5.86038716
_cell_length_b   5.80683754
_cell_length_c   17.49214647
_cell_angle_alpha   60.05531896
_cell_angle_beta   59.72493872
_cell_angle_gamma   60.33039146
_symmetry_Int_Tables_number   1
_chemical_formula_structural   Zn(CoO2)2
_chemical_formula_sum   'Zn6 Co12 O24'
_cell_volume   421.24305134
_cell_formula_units_Z   6
loop_
 _symmetry_equiv_pos_site_id
 _symmetry_equiv_pos_as_xyz
  1  'x, y, z'
loop_
 _atom_site_type_symbol
 _atom_site_label
 _atom_site_symmetry_multiplicity
 _atom_site_fract_x
 _atom_site_fract_y
 _atom_site_fract_z
 _atom_site_occupancy
  Zn  Zn0  1  0.138794  0.118072  0.041727  1
  Zn  Zn1  1  0.499881  0.501951  0.332106  1
  Zn  Zn2  1  0.999520  0.499928  0.166901  1
  Zn  Zn3  1  0.499028  0.499134  0.667640  1
  Zn  Zn4  1  0.999845  0.500193  0.499755  1
  Zn  Zn5  1  0.999494  0.499104  0.833949  1
  Co  Co6  1  0.499039  0.005882  0.165033  1
  Co  Co7  1  0.130757  0.118103  0.377821  1
  Co  Co8  1  0.498381  0.499003  0.001263  1
  Co  Co9  1  0.498848  0.500589  0.164910  1
  Co  Co10  1  0.501705  0.999673  0.499548  1
  Co  Co11  1  0.132210  0.118079  0.710567  1
  Co  Co12  1  0.500608  0.499009  0.500202  1
  Co  Co13  1  0.500698  0.996112  0.834728  1
  Co  Co14  1  0.868993  0.883863  0.287680  1
  Co  Co15  1  0.500229  0.499556  0.834644  1
  Co  Co16  1  0.867930  0.881799  0.622726  1
  Co  Co17  1  0.864592  0.879163  0.958729  1
  O  O18  1  0.281964  0.256283  0.084706  1
  O  O19  1  0.278725  0.246116  0.243021  1
  O  O20  1  0.281925  0.707646  0.084763  1
  O  O21  1  0.709740  0.265176  0.086731  1
  O  O22  1  0.270690  0.234388  0.423016  1
  O  O23  1  0.272255  0.756336  0.238311  1
  O  O24  1  0.279389  0.246116  0.576144  1
  O  O25  1  0.731812  0.275224  0.241664  1
  O  O26  1  0.270538  0.725545  0.423131  1
  O  O27  1  0.714266  0.756037  0.091228  1
  O  O28  1  0.727928  0.247517  0.425641  1
  O  O29  1  0.731717  0.767865  0.241728  1
  O  O30  1  0.270771  0.229484  0.757719  1
  O  O31  1  0.272501  0.752303  0.574245  1
  O  O32  1  0.730481  0.274380  0.576750  1
  O  O33  1  0.270488  0.726863  0.757737  1
  O  O34  1  0.281040  0.253995  0.903633  1
  O  O35  1  0.721579  0.753465  0.423715  1
  O  O36  1  0.729915  0.243660  0.760863  1
  O  O37  1  0.730017  0.764963  0.576919  1
  O  O38  1  0.283185  0.736729  0.914439  1
  O  O39  1  0.716544  0.279719  0.917682  1
  O  O40  1  0.725792  0.749742  0.758446  1
  O  O41  1  0.716186  0.751233  0.917839  1
