# generated using pymatgen
data_Ca2Sb2S5
_symmetry_space_group_name_H-M   'P 1'
_cell_length_a   5.73777745
_cell_length_b   11.43811861
_cell_length_c   15.20776132
_cell_angle_alpha   110.85472359
_cell_angle_beta   90.00000000
_cell_angle_gamma   90.00000000
_symmetry_Int_Tables_number   1
_chemical_formula_structural   Ca2Sb2S5
_chemical_formula_sum   'Ca8 Sb8 S20'
_cell_volume   932.68807061
_cell_formula_units_Z   4
loop_
 _symmetry_equiv_pos_site_id
 _symmetry_equiv_pos_as_xyz
  1  'x, y, z'
loop_
 _atom_site_type_symbol
 _atom_site_label
 _atom_site_symmetry_multiplicity
 _atom_site_fract_x
 _atom_site_fract_y
 _atom_site_fract_z
 _atom_site_occupancy
  S  S0  1  0.265766  0.659384  0.299085  1
  S  S1  1  0.765766  0.840616  0.700915  1
  S  S2  1  0.734234  0.340616  0.700915  1
  S  S3  1  0.234234  0.159384  0.299085  1
  S  S4  1  0.303080  0.936264  0.878795  1
  S  S5  1  0.803080  0.563736  0.121205  1
  S  S6  1  0.696920  0.063736  0.121205  1
  S  S7  1  0.196920  0.436264  0.878795  1
  S  S8  1  0.274581  0.595690  0.695369  1
  S  S9  1  0.774581  0.904310  0.304631  1
  S  S10  1  0.725419  0.404310  0.304631  1
  S  S11  1  0.225419  0.095690  0.695369  1
  S  S12  1  0.010441  0.846992  0.500363  1
  S  S13  1  0.510441  0.653008  0.499637  1
  S  S14  1  0.989559  0.153008  0.499637  1
  S  S15  1  0.489559  0.346992  0.500363  1
  S  S16  1  0.773153  0.723739  0.904057  1
  S  S17  1  0.273153  0.776261  0.095943  1
  S  S18  1  0.226847  0.276261  0.095943  1
  S  S19  1  0.726847  0.223739  0.904057  1
  Ca  Ca20  1  0.266870  0.831990  0.666187  1
  Ca  Ca21  1  0.766870  0.668010  0.333813  1
  Ca  Ca22  1  0.733130  0.168010  0.333813  1
  Ca  Ca23  1  0.233130  0.331990  0.666187  1
  Ca  Ca24  1  0.724427  0.306766  0.106515  1
  Ca  Ca25  1  0.224427  0.193234  0.893485  1
  Ca  Ca26  1  0.275573  0.693234  0.893485  1
  Ca  Ca27  1  0.775573  0.806766  0.106515  1
  Sb  Sb28  1  0.155377  0.946854  0.384200  1
  Sb  Sb29  1  0.655377  0.553146  0.615800  1
  Sb  Sb30  1  0.844623  0.053146  0.615800  1
  Sb  Sb31  1  0.344623  0.446854  0.384200  1
  Sb  Sb32  1  0.239417  0.574140  0.125152  1
  Sb  Sb33  1  0.739417  0.925860  0.874848  1
  Sb  Sb34  1  0.760583  0.425860  0.874848  1
  Sb  Sb35  1  0.260583  0.074140  0.125152  1
