# generated using pymatgen
data_ZnCuP2O7
_symmetry_space_group_name_H-M   'P 1'
_cell_length_a   6.29338990
_cell_length_b   6.28562288
_cell_length_c   7.05300394
_cell_angle_alpha   68.85029905
_cell_angle_beta   77.87561255
_cell_angle_gamma   80.45641249
_symmetry_Int_Tables_number   1
_chemical_formula_structural   ZnCuP2O7
_chemical_formula_sum   'Zn2 Cu2 P4 O14'
_cell_volume   253.16162141
_cell_formula_units_Z   2
loop_
 _symmetry_equiv_pos_site_id
 _symmetry_equiv_pos_as_xyz
  1  'x, y, z'
loop_
 _atom_site_type_symbol
 _atom_site_label
 _atom_site_symmetry_multiplicity
 _atom_site_fract_x
 _atom_site_fract_y
 _atom_site_fract_z
 _atom_site_occupancy
  Zn  Zn0  1  0.889891  0.283152  0.165438  1
  Zn  Zn1  1  0.110109  0.716848  0.834562  1
  Cu  Cu2  1  0.670822  0.097396  0.780616  1
  Cu  Cu3  1  0.329178  0.902604  0.219384  1
  P  P4  1  0.165561  0.223806  0.751157  1
  P  P5  1  0.834439  0.776194  0.248843  1
  P  P6  1  0.617396  0.635913  0.691168  1
  P  P7  1  0.382604  0.364087  0.308832  1
  O  O8  1  0.764360  0.612003  0.476810  1
  O  O9  1  0.235640  0.387997  0.523190  1
  O  O10  1  -0.000059  0.063697  0.753875  1
  O  O11  1  0.000059  0.936303  0.246125  1
  O  O12  1  0.611697  0.264793  0.359028  1
  O  O13  1  0.388303  0.735207  0.640972  1
  O  O14  1  0.370062  0.612623  0.161810  1
  O  O15  1  0.629938  0.387377  0.838189  1
  O  O16  1  0.942877  0.611974  0.131317  1
  O  O17  1  0.057123  0.388026  0.868683  1
  O  O18  1  0.639741  0.929896  0.160557  1
  O  O19  1  0.360259  0.070104  0.839443  1
  O  O20  1  0.262262  0.209408  0.249845  1
  O  O21  1  0.737738  0.790592  0.750155  1
