# generated using pymatgen
data_Zn3Ni2(GeO4)3
_symmetry_space_group_name_H-M   'P 1'
_cell_length_a   10.39168686
_cell_length_b   10.39168636
_cell_length_c   10.39168648
_cell_angle_alpha   109.47122085
_cell_angle_beta   109.47121986
_cell_angle_gamma   109.47121995
_symmetry_Int_Tables_number   1
_chemical_formula_structural   Zn3Ni2(GeO4)3
_chemical_formula_sum   'Zn12 Ni8 Ge12 O48'
_cell_volume   863.84581435
_cell_formula_units_Z   4
loop_
 _symmetry_equiv_pos_site_id
 _symmetry_equiv_pos_as_xyz
  1  'x, y, z'
loop_
 _atom_site_type_symbol
 _atom_site_label
 _atom_site_symmetry_multiplicity
 _atom_site_fract_x
 _atom_site_fract_y
 _atom_site_fract_z
 _atom_site_occupancy
  Zn  Zn0  1  0.625000  0.250000  0.875000  1
  Zn  Zn1  1  0.875000  0.750000  0.625000  1
  Zn  Zn2  1  0.750000  0.625000  0.875000  1
  Zn  Zn3  1  0.250000  0.875000  0.625000  1
  Zn  Zn4  1  0.875000  0.625000  0.250000  1
  Zn  Zn5  1  0.625000  0.875000  0.750000  1
  Zn  Zn6  1  0.375000  0.750000  0.125000  1
  Zn  Zn7  1  0.125000  0.250000  0.375000  1
  Zn  Zn8  1  0.250000  0.375000  0.125000  1
  Zn  Zn9  1  0.750000  0.125000  0.375000  1
  Zn  Zn10  1  0.125000  0.375000  0.750000  1
  Zn  Zn11  1  0.375000  0.125000  0.250000  1
  Ni  Ni12  1  0.500000  0.500000  0.500000  1
  Ni  Ni13  1  0.500000  0.500000  0.000000  1
  Ni  Ni14  1  0.500000  0.000000  0.500000  1
  Ni  Ni15  1  0.000000  0.500000  0.500000  1
  Ni  Ni16  1  0.500000  0.000000  0.000000  1
  Ni  Ni17  1  0.000000  0.000000  0.500000  1
  Ni  Ni18  1  0.000000  0.500000  0.000000  1
  Ni  Ni19  1  0.000000  0.000000  0.000000  1
  Ge  Ge20  1  0.875000  0.125000  0.750000  1
  Ge  Ge21  1  0.125000  0.875000  0.250000  1
  Ge  Ge22  1  0.250000  0.625000  0.375000  1
  Ge  Ge23  1  0.125000  0.750000  0.875000  1
  Ge  Ge24  1  0.750000  0.875000  0.125000  1
  Ge  Ge25  1  0.375000  0.250000  0.625000  1
  Ge  Ge26  1  0.625000  0.750000  0.375000  1
  Ge  Ge27  1  0.875000  0.250000  0.125000  1
  Ge  Ge28  1  0.250000  0.125000  0.875000  1
  Ge  Ge29  1  0.750000  0.375000  0.625000  1
  Ge  Ge30  1  0.375000  0.625000  0.750000  1
  Ge  Ge31  1  0.625000  0.375000  0.250000  1
  O  O32  1  0.792249  0.420055  0.819935  1
  O  O33  1  0.079945  0.872194  0.399880  1
  O  O34  1  0.680065  0.100120  0.972313  1
  O  O35  1  0.707751  0.527687  0.627806  1
  O  O36  1  0.707751  0.680065  0.079945  1
  O  O37  1  0.527687  0.627806  0.707751  1
  O  O38  1  0.100120  0.627806  0.420055  1
  O  O39  1  0.627806  0.707751  0.527687  1
  O  O40  1  0.399880  0.819935  0.527687  1
  O  O41  1  0.872194  0.972313  0.792249  1
  O  O42  1  0.972313  0.792249  0.872194  1
  O  O43  1  0.079945  0.707751  0.680065  1
  O  O44  1  0.627806  0.420055  0.100120  1
  O  O45  1  0.527687  0.399880  0.819935  1
  O  O46  1  0.680065  0.079945  0.707751  1
  O  O47  1  0.420055  0.100120  0.627806  1
  O  O48  1  0.819935  0.527687  0.399880  1
  O  O49  1  0.399880  0.079945  0.872194  1
  O  O50  1  0.100120  0.972313  0.680065  1
  O  O51  1  0.600120  0.180065  0.472313  1
  O  O52  1  0.972313  0.680065  0.100120  1
  O  O53  1  0.819935  0.792249  0.420055  1
  O  O54  1  0.872194  0.399880  0.079945  1
  O  O55  1  0.792249  0.872194  0.972313  1
  O  O56  1  0.207751  0.579945  0.180065  1
  O  O57  1  0.920055  0.127806  0.600120  1
  O  O58  1  0.319935  0.899880  0.027687  1
  O  O59  1  0.292249  0.472313  0.372194  1
  O  O60  1  0.292249  0.319935  0.920055  1
  O  O61  1  0.472313  0.372194  0.292249  1
  O  O62  1  0.899880  0.372194  0.579945  1
  O  O63  1  0.372194  0.292249  0.472313  1
  O  O64  1  0.207751  0.127806  0.027687  1
  O  O65  1  0.127806  0.600120  0.920055  1
  O  O66  1  0.180065  0.207751  0.579945  1
  O  O67  1  0.579945  0.180065  0.207751  1
  O  O68  1  0.027687  0.319935  0.899880  1
  O  O69  1  0.899880  0.027687  0.319935  1
  O  O70  1  0.600120  0.920055  0.127806  1
  O  O71  1  0.180065  0.472313  0.600120  1
  O  O72  1  0.579945  0.899880  0.372194  1
  O  O73  1  0.319935  0.920055  0.292249  1
  O  O74  1  0.472313  0.600120  0.180065  1
  O  O75  1  0.372194  0.579945  0.899880  1
  O  O76  1  0.920055  0.292249  0.319935  1
  O  O77  1  0.027687  0.207751  0.127806  1
  O  O78  1  0.127806  0.027687  0.207751  1
  O  O79  1  0.420055  0.819935  0.792249  1
