# generated using pymatgen
data_BaYCuWO5
_symmetry_space_group_name_H-M   'P 1'
_cell_length_a   4.03676955
_cell_length_b   4.03677772
_cell_length_c   8.00269418
_cell_angle_alpha   90.00224359
_cell_angle_beta   90.00236936
_cell_angle_gamma   90.00324588
_symmetry_Int_Tables_number   1
_chemical_formula_structural   BaYCuWO5
_chemical_formula_sum   'Ba1 Y1 Cu1 W1 O5'
_cell_volume   130.40823395
_cell_formula_units_Z   1
loop_
 _symmetry_equiv_pos_site_id
 _symmetry_equiv_pos_as_xyz
  1  'x, y, z'
loop_
 _atom_site_type_symbol
 _atom_site_label
 _atom_site_symmetry_multiplicity
 _atom_site_fract_x
 _atom_site_fract_y
 _atom_site_fract_z
 _atom_site_occupancy
  Ba  Ba0  1  0.999996  0.999995  0.997126  1
  Y  Y1  1  0.000016  0.000016  0.433555  1
  Cu  Cu2  1  0.500001  0.500002  0.288786  1
  W  W3  1  0.500002  0.500002  0.677406  1
  O  O4  1  0.000002  0.499996  0.644799  1
  O  O5  1  0.499994  0.000002  0.644799  1
  O  O6  1  0.999998  0.499999  0.283768  1
  O  O7  1  0.499999  0.999999  0.283768  1
  O  O8  1  0.499987  0.499985  0.933909  1
