# generated using pymatgen
data_ZnFe3P3O13
_symmetry_space_group_name_H-M   'P 1'
_cell_length_a   6.35440801
_cell_length_b   7.67329072
_cell_length_c   10.09070962
_cell_angle_alpha   100.56491026
_cell_angle_beta   90.00000000
_cell_angle_gamma   90.00000000
_symmetry_Int_Tables_number   1
_chemical_formula_structural   ZnFe3P3O13
_chemical_formula_sum   'Zn2 Fe6 P6 O26'
_cell_volume   483.67440232
_cell_formula_units_Z   2
loop_
 _symmetry_equiv_pos_site_id
 _symmetry_equiv_pos_as_xyz
  1  'x, y, z'
loop_
 _atom_site_type_symbol
 _atom_site_label
 _atom_site_symmetry_multiplicity
 _atom_site_fract_x
 _atom_site_fract_y
 _atom_site_fract_z
 _atom_site_occupancy
  Zn  Zn0  1  0.750000  0.625177  0.178842  1
  Zn  Zn1  1  0.250000  0.374823  0.821158  1
  Fe  Fe2  1  0.250000  0.354419  0.206056  1
  Fe  Fe3  1  0.750000  0.645581  0.793944  1
  Fe  Fe4  1  0.250000  0.785007  0.432867  1
  Fe  Fe5  1  0.500000  0.000000  0.000000  1
  Fe  Fe6  1  0.750000  0.214993  0.567133  1
  Fe  Fe7  1  -0.000000  0.000000  0.000000  1
  P  P8  1  0.250000  0.218490  0.498787  1
  P  P9  1  0.750000  0.781510  0.501213  1
  P  P10  1  0.250000  0.728225  0.760553  1
  P  P11  1  0.750000  0.271775  0.239447  1
  P  P12  1  0.750000  0.320933  0.889691  1
  P  P13  1  0.250000  0.679067  0.110309  1
  O  O14  1  0.750000  0.370885  0.747155  1
  O  O15  1  0.560033  0.746075  0.402636  1
  O  O16  1  0.250000  0.778156  0.622190  1
  O  O17  1  0.543950  0.215945  0.902674  1
  O  O18  1  0.750000  0.653766  0.601815  1
  O  O19  1  0.750000  0.879198  0.902710  1
  O  O20  1  0.250000  0.346234  0.398185  1
  O  O21  1  0.043950  0.784055  0.097326  1
  O  O22  1  0.250000  0.026961  0.417304  1
  O  O23  1  0.750000  0.973039  0.582696  1
  O  O24  1  0.062819  0.609987  0.787459  1
  O  O25  1  0.250000  0.120802  0.097290  1
  O  O26  1  0.562819  0.390013  0.212541  1
  O  O27  1  0.750000  0.510717  0.976974  1
  O  O28  1  0.750000  0.221844  0.377810  1
  O  O29  1  0.456050  0.784055  0.097326  1
  O  O30  1  0.939967  0.746075  0.402636  1
  O  O31  1  0.439967  0.253925  0.597364  1
  O  O32  1  0.437181  0.609987  0.787459  1
  O  O33  1  0.250000  0.629115  0.252845  1
  O  O34  1  0.750000  0.095981  0.130744  1
  O  O35  1  0.250000  0.904019  0.869256  1
  O  O36  1  0.937181  0.390013  0.212541  1
  O  O37  1  0.956050  0.215945  0.902674  1
  O  O38  1  0.060033  0.253925  0.597364  1
  O  O39  1  0.250000  0.489283  0.023026  1
