# generated using pymatgen
data_Ca(FeO2)2
_symmetry_space_group_name_H-M   'P 1'
_cell_length_a   6.37838673
_cell_length_b   6.22160822
_cell_length_c   6.22160767
_cell_angle_alpha   59.99999469
_cell_angle_beta   60.80981272
_cell_angle_gamma   60.80980534
_symmetry_Int_Tables_number   1
_chemical_formula_structural   Ca(FeO2)2
_chemical_formula_sum   'Ca2 Fe4 O8'
_cell_volume   176.68917030
_cell_formula_units_Z   2
loop_
 _symmetry_equiv_pos_site_id
 _symmetry_equiv_pos_as_xyz
  1  'x, y, z'
loop_
 _atom_site_type_symbol
 _atom_site_label
 _atom_site_symmetry_multiplicity
 _atom_site_fract_x
 _atom_site_fract_y
 _atom_site_fract_z
 _atom_site_occupancy
  Ca  Ca0  1  0.989637  0.003454  0.003454  1
  Ca  Ca1  1  0.126832  0.624389  0.624389  1
  Fe  Fe2  1  0.274731  0.241756  0.241756  1
  Fe  Fe3  1  0.628610  0.113796  0.628797  1
  Fe  Fe4  1  0.628610  0.628797  0.113796  1
  Fe  Fe5  1  0.628610  0.628797  0.628797  1
  O  O6  1  0.405154  0.367031  0.367031  1
  O  O7  1  0.405154  0.367031  0.860783  1
  O  O8  1  0.405154  0.860783  0.367031  1
  O  O9  1  0.866898  0.377700  0.377700  1
  O  O10  1  0.415897  0.861367  0.861367  1
  O  O11  1  0.824905  0.426145  0.874475  1
  O  O12  1  0.824905  0.874475  0.426145  1
  O  O13  1  0.824905  0.874475  0.874475  1
