# generated using pymatgen
data_ZnCuAs2O7
_symmetry_space_group_name_H-M   'P 1'
_cell_length_a   7.23213896
_cell_length_b   8.48367418
_cell_length_c   9.77148117
_cell_angle_alpha   90.00000000
_cell_angle_beta   111.25795845
_cell_angle_gamma   90.00000000
_symmetry_Int_Tables_number   1
_chemical_formula_structural   ZnCuAs2O7
_chemical_formula_sum   'Zn4 Cu4 As8 O28'
_cell_volume   558.73677737
_cell_formula_units_Z   4
loop_
 _symmetry_equiv_pos_site_id
 _symmetry_equiv_pos_as_xyz
  1  'x, y, z'
loop_
 _atom_site_type_symbol
 _atom_site_label
 _atom_site_symmetry_multiplicity
 _atom_site_fract_x
 _atom_site_fract_y
 _atom_site_fract_z
 _atom_site_occupancy
  Zn  Zn0  1  0.267706  0.929958  0.900484  1
  Zn  Zn1  1  0.732294  0.429958  0.599516  1
  Zn  Zn2  1  0.732294  0.070042  0.099516  1
  Zn  Zn3  1  0.267706  0.570042  0.400484  1
  Cu  Cu4  1  0.798838  0.059848  0.670361  1
  Cu  Cu5  1  0.201162  0.559848  0.829639  1
  Cu  Cu6  1  0.201162  0.940152  0.329639  1
  Cu  Cu7  1  0.798838  0.440152  0.170361  1
  As  As8  1  0.437672  0.228679  0.752446  1
  As  As9  1  0.562328  0.728679  0.747554  1
  As  As10  1  0.562328  0.771321  0.247554  1
  As  As11  1  0.437672  0.271321  0.252445  1
  As  As12  1  0.038001  0.277079  0.966311  1
  As  As13  1  0.961999  0.777079  0.533689  1
  As  As14  1  0.961999  0.722921  0.033689  1
  As  As15  1  0.038001  0.222921  0.466311  1
  O  O16  1  0.861008  0.273449  0.047311  1
  O  O17  1  0.138992  0.773449  0.452689  1
  O  O18  1  0.138992  0.726551  0.952689  1
  O  O19  1  0.861008  0.226551  0.547311  1
  O  O20  1  0.361524  0.414253  0.766487  1
  O  O21  1  0.638476  0.914253  0.733513  1
  O  O22  1  0.638476  0.585747  0.233513  1
  O  O23  1  0.361524  0.085747  0.266487  1
  O  O24  1  0.465438  0.103824  0.895912  1
  O  O25  1  0.534562  0.603824  0.604088  1
  O  O26  1  0.534562  0.896176  0.104088  1
  O  O27  1  0.465438  0.396176  0.395912  1
  O  O28  1  0.260697  0.138760  0.593137  1
  O  O29  1  0.739303  0.638760  0.906863  1
  O  O30  1  0.739303  0.861240  0.406863  1
  O  O31  1  0.260697  0.361240  0.093137  1
  O  O32  1  0.992416  0.081291  0.332781  1
  O  O33  1  0.007584  0.581291  0.167219  1
  O  O34  1  0.007584  0.918709  0.667219  1
  O  O35  1  0.992416  0.418709  0.832781  1
  O  O36  1  0.646041  0.261646  0.205364  1
  O  O37  1  0.353959  0.761646  0.294636  1
  O  O38  1  0.353959  0.738354  0.794636  1
  O  O39  1  0.646041  0.238354  0.705364  1
  O  O40  1  0.063420  0.404377  0.403365  1
  O  O41  1  0.936580  0.904377  0.096635  1
  O  O42  1  0.936580  0.595623  0.596635  1
  O  O43  1  0.063420  0.095623  0.903365  1
