# generated using pymatgen
data_CaCrF4
_symmetry_space_group_name_H-M   'P 1'
_cell_length_a   5.49599261
_cell_length_b   5.49495844
_cell_length_c   6.64396966
_cell_angle_alpha   114.39473406
_cell_angle_beta   114.47896976
_cell_angle_gamma   90.03280993
_symmetry_Int_Tables_number   1
_chemical_formula_structural   CaCrF4
_chemical_formula_sum   'Ca2 Cr2 F8'
_cell_volume   162.70241292
_cell_formula_units_Z   2
loop_
 _symmetry_equiv_pos_site_id
 _symmetry_equiv_pos_as_xyz
  1  'x, y, z'
loop_
 _atom_site_type_symbol
 _atom_site_label
 _atom_site_symmetry_multiplicity
 _atom_site_fract_x
 _atom_site_fract_y
 _atom_site_fract_z
 _atom_site_occupancy
  Ca  Ca0  1  0.250754  0.250530  0.500659  1
  Ca  Ca1  1  0.750925  0.750531  0.501058  1
  Cr  Cr2  1  0.000745  0.500588  0.000302  1
  Cr  Cr3  1  0.501512  0.001640  0.001314  1
  F  F4  1  0.937992  0.439113  0.257065  1
  F  F5  1  0.682886  0.181716  0.741044  1
  F  F6  1  0.061917  0.561336  0.742189  1
  F  F7  1  0.182808  0.062040  0.743077  1
  F  F8  1  0.318624  0.819648  0.260327  1
  F  F9  1  0.439605  0.319149  0.259264  1
  F  F10  1  0.818459  0.940788  0.260348  1
  F  F11  1  0.562509  0.682776  0.743654  1
