# generated using pymatgen
data_CaWO2
_symmetry_space_group_name_H-M   'P 1'
_cell_length_a   3.15978573
_cell_length_b   8.53718883
_cell_length_c   8.36775234
_cell_angle_alpha   92.55553612
_cell_angle_beta   78.84007928
_cell_angle_gamma   100.92707810
_symmetry_Int_Tables_number   1
_chemical_formula_structural   CaWO2
_chemical_formula_sum   'Ca4 W4 O8'
_cell_volume   217.43506710
_cell_formula_units_Z   4
loop_
 _symmetry_equiv_pos_site_id
 _symmetry_equiv_pos_as_xyz
  1  'x, y, z'
loop_
 _atom_site_type_symbol
 _atom_site_label
 _atom_site_symmetry_multiplicity
 _atom_site_fract_x
 _atom_site_fract_y
 _atom_site_fract_z
 _atom_site_occupancy
  Ca  Ca0  1  0.376472  0.027337  0.301725  1
  Ca  Ca1  1  0.621305  0.955214  0.724796  1
  Ca  Ca2  1  0.311051  0.695028  0.050773  1
  Ca  Ca3  1  0.686876  0.284106  0.973071  1
  W  W4  1  0.357157  0.317039  0.622042  1
  W  W5  1  0.052505  0.377459  0.352270  1
  W  W6  1  0.930121  0.605653  0.677246  1
  W  W7  1  0.618870  0.663074  0.405713  1
  O  O8  1  0.179869  0.819001  0.521280  1
  O  O9  1  0.373877  0.468613  0.839244  1
  O  O10  1  0.637019  0.503786  0.197657  1
  O  O11  1  0.837894  0.163556  0.505092  1
  O  O12  1  0.179825  0.140108  0.803330  1
  O  O13  1  0.044987  0.203176  0.169135  1
  O  O14  1  0.812561  0.836834  0.222030  1
  O  O15  1  0.947887  0.779353  0.860215  1
