# generated using pymatgen
data_MgSb3O7
_symmetry_space_group_name_H-M   'P 1'
_cell_length_a   5.45291214
_cell_length_b   10.53012646
_cell_length_c   10.56050194
_cell_angle_alpha   90.00000000
_cell_angle_beta   90.00000000
_cell_angle_gamma   90.00000000
_symmetry_Int_Tables_number   1
_chemical_formula_structural   MgSb3O7
_chemical_formula_sum   'Mg4 Sb12 O28'
_cell_volume   606.38248389
_cell_formula_units_Z   4
loop_
 _symmetry_equiv_pos_site_id
 _symmetry_equiv_pos_as_xyz
  1  'x, y, z'
loop_
 _atom_site_type_symbol
 _atom_site_label
 _atom_site_symmetry_multiplicity
 _atom_site_fract_x
 _atom_site_fract_y
 _atom_site_fract_z
 _atom_site_occupancy
  Mg  Mg0  1  0.690025  0.750000  0.852389  1
  Mg  Mg1  1  0.190026  0.250000  0.647611  1
  Mg  Mg2  1  0.309974  0.250000  0.147611  1
  Mg  Mg3  1  0.809975  0.750000  0.352389  1
  Sb  Sb4  1  0.340154  0.987173  0.374217  1
  Sb  Sb5  1  0.840154  0.012827  0.125783  1
  Sb  Sb6  1  0.659846  0.487173  0.625783  1
  Sb  Sb7  1  0.159846  0.512827  0.874217  1
  Sb  Sb8  1  0.290209  0.750000  0.145113  1
  Sb  Sb9  1  0.790209  0.250000  0.354887  1
  Sb  Sb10  1  0.709791  0.250000  0.854887  1
  Sb  Sb11  1  0.209791  0.750000  0.645113  1
  Sb  Sb12  1  0.840154  0.487173  0.125783  1
  Sb  Sb13  1  0.340154  0.512827  0.374217  1
  Sb  Sb14  1  0.159846  0.987173  0.874217  1
  Sb  Sb15  1  0.659846  0.012827  0.625783  1
  O  O16  1  0.974174  0.131879  0.787315  1
  O  O17  1  0.474174  0.868121  0.712685  1
  O  O18  1  0.025826  0.631879  0.212685  1
  O  O19  1  0.525826  0.368121  0.287315  1
  O  O20  1  0.025826  0.868121  0.212685  1
  O  O21  1  0.525826  0.131879  0.287315  1
  O  O22  1  0.974174  0.368121  0.787315  1
  O  O23  1  0.474174  0.631879  0.712685  1
  O  O24  1  0.480777  0.123270  0.783301  1
  O  O25  1  0.980777  0.876730  0.716699  1
  O  O26  1  0.519223  0.623270  0.216699  1
  O  O27  1  0.019223  0.376730  0.283301  1
  O  O28  1  0.519223  0.876730  0.216699  1
  O  O29  1  0.019223  0.123270  0.283301  1
  O  O30  1  0.480777  0.376730  0.783301  1
  O  O31  1  0.980777  0.623270  0.716699  1
  O  O32  1  0.152058  0.750000  0.465530  1
  O  O33  1  0.652058  0.250000  0.034470  1
  O  O34  1  0.847942  0.250000  0.534470  1
  O  O35  1  0.347942  0.750000  0.965530  1
  O  O36  1  0.149834  0.408879  0.044562  1
  O  O37  1  0.649834  0.591121  0.455438  1
  O  O38  1  0.850166  0.908879  0.955438  1
  O  O39  1  0.350166  0.091121  0.544562  1
  O  O40  1  0.850166  0.591121  0.955438  1
  O  O41  1  0.350166  0.408879  0.544562  1
  O  O42  1  0.149834  0.091121  0.044562  1
  O  O43  1  0.649834  0.908879  0.455438  1
