# generated using pymatgen
data_MgSn3O7
_symmetry_space_group_name_H-M   'P 1'
_cell_length_a   5.23510342
_cell_length_b   10.31861697
_cell_length_c   10.23531868
_cell_angle_alpha   90.00000000
_cell_angle_beta   90.00000000
_cell_angle_gamma   90.00000000
_symmetry_Int_Tables_number   1
_chemical_formula_structural   MgSn3O7
_chemical_formula_sum   'Mg4 Sn12 O28'
_cell_volume   552.90195602
_cell_formula_units_Z   4
loop_
 _symmetry_equiv_pos_site_id
 _symmetry_equiv_pos_as_xyz
  1  'x, y, z'
loop_
 _atom_site_type_symbol
 _atom_site_label
 _atom_site_symmetry_multiplicity
 _atom_site_fract_x
 _atom_site_fract_y
 _atom_site_fract_z
 _atom_site_occupancy
  Mg  Mg0  1  0.668601  0.750000  0.863343  1
  Mg  Mg1  1  0.168601  0.250000  0.636657  1
  Mg  Mg2  1  0.331399  0.250000  0.136657  1
  Mg  Mg3  1  0.831399  0.750000  0.363343  1
  Sn  Sn4  1  0.353406  0.983957  0.361199  1
  Sn  Sn5  1  0.853406  0.016043  0.138801  1
  Sn  Sn6  1  0.646594  0.483957  0.638801  1
  Sn  Sn7  1  0.146594  0.516043  0.861199  1
  Sn  Sn8  1  0.313632  0.750000  0.144823  1
  Sn  Sn9  1  0.813632  0.250000  0.355177  1
  Sn  Sn10  1  0.686368  0.250000  0.855177  1
  Sn  Sn11  1  0.186368  0.750000  0.644823  1
  Sn  Sn12  1  0.853406  0.483957  0.138801  1
  Sn  Sn13  1  0.353406  0.516043  0.361199  1
  Sn  Sn14  1  0.146594  0.983957  0.861199  1
  Sn  Sn15  1  0.646594  0.016043  0.638801  1
  O  O16  1  0.925128  0.121505  0.756130  1
  O  O17  1  0.425128  0.878495  0.743870  1
  O  O18  1  0.074872  0.621505  0.243870  1
  O  O19  1  0.574872  0.378495  0.256130  1
  O  O20  1  0.074872  0.878495  0.243870  1
  O  O21  1  0.574872  0.121505  0.256130  1
  O  O22  1  0.925128  0.378495  0.756130  1
  O  O23  1  0.425128  0.621505  0.743870  1
  O  O24  1  0.426753  0.121937  0.780618  1
  O  O25  1  0.926753  0.878063  0.719382  1
  O  O26  1  0.573247  0.621937  0.219382  1
  O  O27  1  0.073247  0.378063  0.280617  1
  O  O28  1  0.573247  0.878063  0.219382  1
  O  O29  1  0.073247  0.121937  0.280617  1
  O  O30  1  0.426753  0.378063  0.780618  1
  O  O31  1  0.926753  0.621937  0.719382  1
  O  O32  1  0.199655  0.750000  0.455217  1
  O  O33  1  0.699655  0.250000  0.044783  1
  O  O34  1  0.800345  0.250000  0.544783  1
  O  O35  1  0.300345  0.750000  0.955217  1
  O  O36  1  0.182854  0.415975  0.032152  1
  O  O37  1  0.682854  0.584025  0.467848  1
  O  O38  1  0.817146  0.915975  0.967848  1
  O  O39  1  0.317146  0.084025  0.532152  1
  O  O40  1  0.817146  0.584025  0.967848  1
  O  O41  1  0.317146  0.415975  0.532152  1
  O  O42  1  0.182854  0.084025  0.032152  1
  O  O43  1  0.682854  0.915975  0.467848  1
