# generated using pymatgen
data_TiO2
_symmetry_space_group_name_H-M   'P 1'
_cell_length_a   2.98386421
_cell_length_b   7.44749957
_cell_length_c   7.44758902
_cell_angle_alpha   87.69921341
_cell_angle_beta   78.44509088
_cell_angle_gamma   78.44424170
_symmetry_Int_Tables_number   1
_chemical_formula_structural   TiO2
_chemical_formula_sum   'Ti4 O8'
_cell_volume   158.86183408
_cell_formula_units_Z   4
loop_
 _symmetry_equiv_pos_site_id
 _symmetry_equiv_pos_as_xyz
  1  'x, y, z'
loop_
 _atom_site_type_symbol
 _atom_site_label
 _atom_site_symmetry_multiplicity
 _atom_site_fract_x
 _atom_site_fract_y
 _atom_site_fract_z
 _atom_site_occupancy
  Ti  Ti0  1  0.643898  0.183555  0.528613  1
  Ti  Ti1  1  0.172512  0.471387  0.183559  1
  Ti  Ti2  1  0.827489  0.528611  0.816441  1
  Ti  Ti3  1  0.356102  0.816446  0.471386  1
  O  O4  1  0.835720  0.703963  0.624550  1
  O  O5  1  0.460237  0.375432  0.703995  1
  O  O6  1  0.539764  0.624567  0.296006  1
  O  O7  1  0.164279  0.296038  0.375451  1
  O  O8  1  0.156439  0.054776  0.632374  1
  O  O9  1  0.788811  0.367614  0.054805  1
  O  O10  1  0.843561  0.945224  0.367627  1
  O  O11  1  0.211190  0.632387  0.945195  1
