# generated using pymatgen
data_MgFeP2O7
_symmetry_space_group_name_H-M   'P 1'
_cell_length_a   5.64952220
_cell_length_b   6.44656158
_cell_length_c   7.39491516
_cell_angle_alpha   83.14116031
_cell_angle_beta   87.44284624
_cell_angle_gamma   71.49712913
_symmetry_Int_Tables_number   1
_chemical_formula_structural   MgFeP2O7
_chemical_formula_sum   'Mg2 Fe2 P4 O14'
_cell_volume   253.56660218
_cell_formula_units_Z   2
loop_
 _symmetry_equiv_pos_site_id
 _symmetry_equiv_pos_as_xyz
  1  'x, y, z'
loop_
 _atom_site_type_symbol
 _atom_site_label
 _atom_site_symmetry_multiplicity
 _atom_site_fract_x
 _atom_site_fract_y
 _atom_site_fract_z
 _atom_site_occupancy
  Mg  Mg0  1  0.332246  0.662132  0.654913  1
  Mg  Mg1  1  0.667748  0.337871  0.345086  1
  Fe  Fe2  1  0.252382  0.152474  0.205388  1
  Fe  Fe3  1  0.747629  0.847538  0.794620  1
  P  P4  1  0.186437  0.673815  0.101143  1
  P  P5  1  0.813561  0.326186  0.898855  1
  P  P6  1  0.222347  0.207672  0.610340  1
  P  P7  1  0.777657  0.792322  0.389660  1
  O  O8  1  0.111942  0.695860  0.901065  1
  O  O9  1  0.888057  0.304146  0.098934  1
  O  O10  1  0.291225  0.850546  0.145686  1
  O  O11  1  0.708772  0.149453  0.854320  1
  O  O12  1  0.356386  0.439028  0.166111  1
  O  O13  1  0.643611  0.560970  0.833879  1
  O  O14  1  0.618139  0.640797  0.438841  1
  O  O15  1  0.381862  0.359199  0.561158  1
  O  O16  1  0.040200  0.220842  0.456626  1
  O  O17  1  0.959799  0.779147  0.543374  1
  O  O18  1  0.071889  0.302160  0.787753  1
  O  O19  1  0.625151  0.032246  0.328088  1
  O  O20  1  0.374854  0.967751  0.671914  1
  O  O21  1  0.928109  0.697838  0.212243  1
