# generated using pymatgen
data_Mg(SbO2)2
_symmetry_space_group_name_H-M   'P 1'
_cell_length_a   6.69865612
_cell_length_b   6.69865826
_cell_length_c   6.70255881
_cell_angle_alpha   119.98074557
_cell_angle_beta   119.98074377
_cell_angle_gamma   89.99999442
_symmetry_Int_Tables_number   1
_chemical_formula_structural   Mg(SbO2)2
_chemical_formula_sum   'Mg2 Sb4 O8'
_cell_volume   212.79124910
_cell_formula_units_Z   2
loop_
 _symmetry_equiv_pos_site_id
 _symmetry_equiv_pos_as_xyz
  1  'x, y, z'
loop_
 _atom_site_type_symbol
 _atom_site_label
 _atom_site_symmetry_multiplicity
 _atom_site_fract_x
 _atom_site_fract_y
 _atom_site_fract_z
 _atom_site_occupancy
  Mg  Mg0  1  0.375000  0.625000  0.750000  1
  Mg  Mg1  1  0.625000  0.375000  0.250000  1
  Sb  Sb2  1  -0.000000  0.000000  0.500000  1
  Sb  Sb3  1  -0.000000  0.500000  0.000000  1
  Sb  Sb4  1  0.500000  0.000000  0.500000  1
  Sb  Sb5  1  -0.000000  0.000000  0.000000  1
  O  O6  1  0.751203  0.752794  0.502406  1
  O  O7  1  0.750389  0.248797  0.997594  1
  O  O8  1  0.247206  0.248797  0.997594  1
  O  O9  1  0.248797  0.247206  0.497594  1
  O  O10  1  0.248797  0.750389  0.497594  1
  O  O11  1  0.249611  0.751203  0.002406  1
  O  O12  1  0.751203  0.249611  0.502406  1
  O  O13  1  0.752794  0.751203  0.002406  1
