# generated using pymatgen
data_MgCoBiO5
_symmetry_space_group_name_H-M   'P 1'
_cell_length_a   5.31021439
_cell_length_b   10.56424865
_cell_length_c   15.35079826
_cell_angle_alpha   90.00000000
_cell_angle_beta   90.00000000
_cell_angle_gamma   90.00000000
_symmetry_Int_Tables_number   1
_chemical_formula_structural   MgCoBiO5
_chemical_formula_sum   'Mg8 Co8 Bi8 O40'
_cell_volume   861.15560796
_cell_formula_units_Z   8
loop_
 _symmetry_equiv_pos_site_id
 _symmetry_equiv_pos_as_xyz
  1  'x, y, z'
loop_
 _atom_site_type_symbol
 _atom_site_label
 _atom_site_symmetry_multiplicity
 _atom_site_fract_x
 _atom_site_fract_y
 _atom_site_fract_z
 _atom_site_occupancy
  Mg  Mg0  1  0.493987  0.363985  0.452327  1
  Mg  Mg1  1  0.993987  0.136015  0.452327  1
  Mg  Mg2  1  0.993987  0.636015  0.047673  1
  Mg  Mg3  1  0.006013  0.363985  0.952327  1
  Mg  Mg4  1  0.506013  0.136015  0.952327  1
  Mg  Mg5  1  0.006013  0.863985  0.547673  1
  Mg  Mg6  1  0.506013  0.636015  0.547673  1
  Mg  Mg7  1  0.493987  0.863985  0.047673  1
  Co  Co8  1  0.982090  0.399135  0.589618  1
  Co  Co9  1  0.517910  0.899135  0.410382  1
  Co  Co10  1  0.017910  0.600865  0.410382  1
  Co  Co11  1  0.482090  0.100865  0.589618  1
  Co  Co12  1  0.017910  0.100865  0.089618  1
  Co  Co13  1  0.982090  0.899135  0.910382  1
  Co  Co14  1  0.517910  0.399135  0.089618  1
  Co  Co15  1  0.482090  0.600865  0.910382  1
  Bi  Bi16  1  0.973708  0.853817  0.230587  1
  Bi  Bi17  1  0.026292  0.146183  0.769413  1
  Bi  Bi18  1  0.526292  0.353817  0.769413  1
  Bi  Bi19  1  0.026292  0.646183  0.730587  1
  Bi  Bi20  1  0.473708  0.146183  0.269413  1
  Bi  Bi21  1  0.473708  0.646183  0.230587  1
  Bi  Bi22  1  0.526292  0.853817  0.730587  1
  Bi  Bi23  1  0.973708  0.353817  0.269413  1
  O  O24  1  0.902926  0.323701  0.692020  1
  O  O25  1  0.311160  0.044357  0.053564  1
  O  O26  1  0.188840  0.544357  0.946436  1
  O  O27  1  0.301883  0.792424  0.154000  1
  O  O28  1  0.198117  0.292424  0.846000  1
  O  O29  1  0.902926  0.823701  0.807980  1
  O  O30  1  0.198117  0.792424  0.654000  1
  O  O31  1  0.597074  0.823701  0.307980  1
  O  O32  1  0.311160  0.544357  0.446436  1
  O  O33  1  0.097074  0.676299  0.307980  1
  O  O34  1  0.597074  0.323701  0.192020  1
  O  O35  1  0.636678  0.195104  0.514585  1
  O  O36  1  0.811160  0.955643  0.446436  1
  O  O37  1  0.698117  0.707576  0.654000  1
  O  O38  1  0.193990  0.025208  0.874070  1
  O  O39  1  0.811160  0.455643  0.053564  1
  O  O40  1  0.097074  0.176299  0.192020  1
  O  O41  1  0.801883  0.207576  0.346000  1
  O  O42  1  0.136678  0.804896  0.985415  1
  O  O43  1  0.188840  0.044357  0.553564  1
  O  O44  1  0.363322  0.804896  0.485415  1
  O  O45  1  0.806010  0.974792  0.125930  1
  O  O46  1  0.698117  0.207576  0.846000  1
  O  O47  1  0.693990  0.974792  0.625930  1
  O  O48  1  0.363322  0.304896  0.014585  1
  O  O49  1  0.136678  0.304896  0.514585  1
  O  O50  1  0.688840  0.455643  0.553564  1
  O  O51  1  0.688840  0.955643  0.946436  1
  O  O52  1  0.693990  0.474792  0.874070  1
  O  O53  1  0.863322  0.695104  0.485415  1
  O  O54  1  0.863322  0.195104  0.014585  1
  O  O55  1  0.636678  0.695104  0.985415  1
  O  O56  1  0.806010  0.474792  0.374070  1
  O  O57  1  0.801883  0.707576  0.154000  1
  O  O58  1  0.301883  0.292424  0.346000  1
  O  O59  1  0.193990  0.525208  0.625930  1
  O  O60  1  0.306010  0.525208  0.125930  1
  O  O61  1  0.402926  0.176299  0.692020  1
  O  O62  1  0.306010  0.025208  0.374070  1
  O  O63  1  0.402926  0.676299  0.807980  1
