# generated using pymatgen
data_CaCo(Si2O5)2
_symmetry_space_group_name_H-M   'P 1'
_cell_length_a   7.43621151
_cell_length_b   7.43621151
_cell_length_c   15.37851465
_cell_angle_alpha   90.00000000
_cell_angle_beta   90.00000000
_cell_angle_gamma   89.99999353
_symmetry_Int_Tables_number   1
_chemical_formula_structural   CaCo(Si2O5)2
_chemical_formula_sum   'Ca4 Co4 Si16 O40'
_cell_volume   850.38944038
_cell_formula_units_Z   4
loop_
 _symmetry_equiv_pos_site_id
 _symmetry_equiv_pos_as_xyz
  1  'x, y, z'
loop_
 _atom_site_type_symbol
 _atom_site_label
 _atom_site_symmetry_multiplicity
 _atom_site_fract_x
 _atom_site_fract_y
 _atom_site_fract_z
 _atom_site_occupancy
  Ca  Ca0  1  0.250000  0.750000  0.500000  1
  Ca  Ca1  1  0.750000  0.250000  0.500000  1
  Ca  Ca2  1  0.750000  0.250000  1.000000  1
  Ca  Ca3  1  0.250000  0.750000  0.000000  1
  Co  Co4  1  0.250000  0.250000  0.579245  1
  Co  Co5  1  0.750000  0.750000  0.920755  1
  Co  Co6  1  0.750000  0.750000  0.420755  1
  Co  Co7  1  0.250000  0.250000  0.079245  1
  Si  Si8  1  0.922977  0.501945  0.647874  1
  Si  Si9  1  0.577023  0.998055  0.647874  1
  Si  Si10  1  0.001945  0.422977  0.852126  1
  Si  Si11  1  0.501945  0.577023  0.647874  1
  Si  Si12  1  0.998055  0.922977  0.647874  1
  Si  Si13  1  0.077023  0.001945  0.852126  1
  Si  Si14  1  0.422977  0.498055  0.852126  1
  Si  Si15  1  0.498055  0.077023  0.852126  1
  Si  Si16  1  0.077023  0.498055  0.352126  1
  Si  Si17  1  0.422977  0.001945  0.352126  1
  Si  Si18  1  0.998055  0.577023  0.147874  1
  Si  Si19  1  0.498055  0.422977  0.352126  1
  Si  Si20  1  0.001945  0.077023  0.352126  1
  Si  Si21  1  0.922977  0.998055  0.147874  1
  Si  Si22  1  0.577023  0.501945  0.147874  1
  Si  Si23  1  0.501945  0.922977  0.147874  1
  O  O24  1  0.001625  0.352281  0.582845  1
  O  O25  1  0.498376  0.147719  0.582845  1
  O  O26  1  0.852281  0.501624  0.917155  1
  O  O27  1  0.352281  0.498377  0.582845  1
  O  O28  1  0.147719  0.001624  0.582845  1
  O  O29  1  0.998377  0.852281  0.917155  1
  O  O30  1  0.501623  0.647719  0.917155  1
  O  O31  1  0.647719  0.998376  0.917155  1
  O  O32  1  0.998376  0.647719  0.417155  1
  O  O33  1  0.501624  0.852281  0.417155  1
  O  O34  1  0.147719  0.498376  0.082845  1
  O  O35  1  0.647719  0.501623  0.417155  1
  O  O36  1  0.852281  0.998377  0.417155  1
  O  O37  1  0.001624  0.147719  0.082845  1
  O  O38  1  0.498377  0.352281  0.082845  1
  O  O39  1  0.999936  0.295129  0.372749  1
  O  O40  1  0.352281  0.001625  0.082845  1
  O  O41  1  0.499936  0.795129  0.627251  1
  O  O42  1  0.204871  0.500064  0.872749  1
  O  O43  1  0.704870  0.499936  0.627251  1
  O  O44  1  0.795130  0.000064  0.627251  1
  O  O45  1  0.999936  0.204870  0.872749  1
  O  O46  1  0.500064  0.295130  0.872749  1
  O  O47  1  0.295129  0.999936  0.872749  1
  O  O48  1  0.458343  0.958343  0.250000  1
  O  O49  1  0.541657  0.458343  0.250000  1
  O  O50  1  0.958343  0.041658  0.250000  1
  O  O51  1  0.041658  0.541657  0.250000  1
  O  O52  1  0.541657  0.041658  0.750000  1
  O  O53  1  0.458343  0.541657  0.750000  1
  O  O54  1  0.041658  0.958343  0.750000  1
  O  O55  1  0.958343  0.458343  0.750000  1
  O  O56  1  0.704871  0.000064  0.127251  1
  O  O57  1  0.499936  0.704870  0.127251  1
  O  O58  1  0.000064  0.795130  0.127251  1
  O  O59  1  0.204870  0.999936  0.372749  1
  O  O60  1  0.295130  0.500064  0.372749  1
  O  O61  1  0.795129  0.499936  0.127251  1
  O  O62  1  0.500064  0.204871  0.372749  1
  O  O63  1  0.000064  0.704871  0.627251  1
