# generated using pymatgen
data_Y(NiO2)2
_symmetry_space_group_name_H-M   'P 1'
_cell_length_a   6.18918130
_cell_length_b   6.18918137
_cell_length_c   6.18918180
_cell_angle_alpha   60.38647567
_cell_angle_beta   60.38647772
_cell_angle_gamma   60.38647457
_symmetry_Int_Tables_number   1
_chemical_formula_structural   Y(NiO2)2
_chemical_formula_sum   'Y2 Ni4 O8'
_cell_volume   169.10802961
_cell_formula_units_Z   2
loop_
 _symmetry_equiv_pos_site_id
 _symmetry_equiv_pos_as_xyz
  1  'x, y, z'
loop_
 _atom_site_type_symbol
 _atom_site_label
 _atom_site_symmetry_multiplicity
 _atom_site_fract_x
 _atom_site_fract_y
 _atom_site_fract_z
 _atom_site_occupancy
  Y  Y0  1  0.620891  0.620891  0.620891  1
  Y  Y1  1  0.379109  0.379109  0.379109  1
  Ni  Ni2  1  0.000000  0.500000  0.000000  1
  Ni  Ni3  1  0.000000  0.000000  0.000000  1
  Ni  Ni4  1  0.500000  0.000000  0.000000  1
  Ni  Ni5  1  0.000000  0.000000  0.500000  1
  O  O6  1  0.198027  0.764233  0.764233  1
  O  O7  1  0.235767  0.235767  0.801973  1
  O  O8  1  0.235767  0.801973  0.235767  1
  O  O9  1  0.238469  0.238469  0.238469  1
  O  O10  1  0.764233  0.764233  0.198027  1
  O  O11  1  0.801973  0.235767  0.235767  1
  O  O12  1  0.764233  0.198027  0.764233  1
  O  O13  1  0.761531  0.761531  0.761531  1
