# generated using pymatgen
data_Ca2TeWO6
_symmetry_space_group_name_H-M   'P 1'
_cell_length_a   5.74249824
_cell_length_b   6.16992800
_cell_length_c   7.96222243
_cell_angle_alpha   90.00000000
_cell_angle_beta   84.81523762
_cell_angle_gamma   90.00000000
_symmetry_Int_Tables_number   1
_chemical_formula_structural   Ca2TeWO6
_chemical_formula_sum   'Ca4 Te2 W2 O12'
_cell_volume   280.95366223
_cell_formula_units_Z   2
loop_
 _symmetry_equiv_pos_site_id
 _symmetry_equiv_pos_as_xyz
  1  'x, y, z'
loop_
 _atom_site_type_symbol
 _atom_site_label
 _atom_site_symmetry_multiplicity
 _atom_site_fract_x
 _atom_site_fract_y
 _atom_site_fract_z
 _atom_site_occupancy
  Ca  Ca0  1  0.011297  0.021682  0.265579  1
  Ca  Ca1  1  0.488703  0.521683  0.234421  1
  Ca  Ca2  1  0.988704  0.978319  0.734421  1
  Ca  Ca3  1  0.511296  0.478318  0.765579  1
  Te  Te4  1  0.500000  0.000000  0.000000  1
  Te  Te5  1  0.000001  0.499999  0.500000  1
  W  W6  1  0.500000  0.000000  0.499999  1
  W  W7  1  0.000000  0.499999  0.000000  1
  O  O8  1  0.652115  0.226067  0.374899  1
  O  O9  1  0.847885  0.726067  0.125101  1
  O  O10  1  0.347884  0.773934  0.625101  1
  O  O11  1  0.152116  0.273933  0.874899  1
  O  O12  1  0.197997  0.171179  0.520115  1
  O  O13  1  0.302003  0.671178  0.979885  1
  O  O14  1  0.802004  0.828821  0.479885  1
  O  O15  1  0.697996  0.328822  0.020115  1
  O  O16  1  0.096676  0.385485  0.219026  1
  O  O17  1  0.403325  0.885486  0.280973  1
  O  O18  1  0.596676  0.114514  0.719027  1
  O  O19  1  0.903325  0.614515  0.780974  1
