# generated using pymatgen
data_CaSnBiO5
_symmetry_space_group_name_H-M   'P 1'
_cell_length_a   5.92564619
_cell_length_b   9.07839805
_cell_length_c   11.14990191
_cell_angle_alpha   90.00000000
_cell_angle_beta   90.00000000
_cell_angle_gamma   110.15579838
_symmetry_Int_Tables_number   1
_chemical_formula_structural   CaSnBiO5
_chemical_formula_sum   'Ca4 Sn4 Bi4 O20'
_cell_volume   563.08007237
_cell_formula_units_Z   4
loop_
 _symmetry_equiv_pos_site_id
 _symmetry_equiv_pos_as_xyz
  1  'x, y, z'
loop_
 _atom_site_type_symbol
 _atom_site_label
 _atom_site_symmetry_multiplicity
 _atom_site_fract_x
 _atom_site_fract_y
 _atom_site_fract_z
 _atom_site_occupancy
  Ca  Ca0  1  0.636226  0.168558  0.903802  1
  Ca  Ca1  1  0.363774  0.831442  0.096199  1
  Ca  Ca2  1  0.863774  0.331442  0.403801  1
  Ca  Ca3  1  0.136226  0.668558  0.596198  1
  Sn  Sn4  1  0.819697  0.939283  0.614791  1
  Sn  Sn5  1  0.180303  0.060717  0.385209  1
  Sn  Sn6  1  0.680303  0.560717  0.114791  1
  Sn  Sn7  1  0.319697  0.439283  0.885209  1
  Bi  Bi8  1  0.119035  0.149096  0.101625  1
  Bi  Bi9  1  0.880965  0.850904  0.898375  1
  Bi  Bi10  1  0.619035  0.649096  0.398375  1
  Bi  Bi11  1  0.380965  0.350904  0.601625  1
  O  O12  1  0.488566  0.351399  0.038577  1
  O  O13  1  0.019304  0.313057  0.970946  1
  O  O14  1  0.499536  0.675161  0.212639  1
  O  O15  1  0.731891  0.512714  0.537298  1
  O  O16  1  0.784432  0.507594  0.277233  1
  O  O17  1  0.284432  0.007594  0.222767  1
  O  O18  1  0.519304  0.813057  0.529054  1
  O  O19  1  0.480696  0.186943  0.470946  1
  O  O20  1  0.268109  0.487286  0.462702  1
  O  O21  1  0.011434  0.148601  0.538577  1
  O  O22  1  0.215568  0.492406  0.722767  1
  O  O23  1  0.511434  0.648601  0.961423  1
  O  O24  1  0.988566  0.851399  0.461423  1
  O  O25  1  0.715568  0.992406  0.777233  1
  O  O26  1  0.768109  0.987286  0.037298  1
  O  O27  1  0.231891  0.012714  0.962702  1
  O  O28  1  0.500464  0.324839  0.787361  1
  O  O29  1  0.980696  0.686943  0.029054  1
  O  O30  1  0.000464  0.824839  0.712639  1
  O  O31  1  0.999536  0.175161  0.287361  1
