# generated using pymatgen
data_CaFe2(CuO4)2
_symmetry_space_group_name_H-M   'P 1'
_cell_length_a   6.50090659
_cell_length_b   8.66601902
_cell_length_c   12.15859472
_cell_angle_alpha   90.00000000
_cell_angle_beta   86.08062566
_cell_angle_gamma   90.00000000
_symmetry_Int_Tables_number   1
_chemical_formula_structural   CaFe2(CuO4)2
_chemical_formula_sum   'Ca4 Fe8 Cu8 O32'
_cell_volume   683.37649710
_cell_formula_units_Z   4
loop_
 _symmetry_equiv_pos_site_id
 _symmetry_equiv_pos_as_xyz
  1  'x, y, z'
loop_
 _atom_site_type_symbol
 _atom_site_label
 _atom_site_symmetry_multiplicity
 _atom_site_fract_x
 _atom_site_fract_y
 _atom_site_fract_z
 _atom_site_occupancy
  Ca  Ca0  1  0.152811  0.169356  0.024017  1
  Ca  Ca1  1  0.847189  0.830644  0.975983  1
  Ca  Ca2  1  0.847189  0.669356  0.475983  1
  Ca  Ca3  1  0.152811  0.330644  0.524017  1
  Fe  Fe4  1  0.086880  0.463159  0.830506  1
  Fe  Fe5  1  0.086880  0.036841  0.330506  1
  Fe  Fe6  1  0.600488  0.101292  0.134920  1
  Fe  Fe7  1  0.913120  0.963159  0.669494  1
  Fe  Fe8  1  0.399512  0.898708  0.865080  1
  Fe  Fe9  1  0.399512  0.601292  0.365080  1
  Fe  Fe10  1  0.600488  0.398708  0.634920  1
  Fe  Fe11  1  0.913120  0.536841  0.169494  1
  Cu  Cu12  1  0.734408  0.194448  0.880299  1
  Cu  Cu13  1  0.397706  0.040938  0.638586  1
  Cu  Cu14  1  0.602294  0.959062  0.361414  1
  Cu  Cu15  1  0.265592  0.805552  0.119701  1
  Cu  Cu16  1  0.734408  0.305552  0.380299  1
  Cu  Cu17  1  0.397706  0.459062  0.138586  1
  Cu  Cu18  1  0.265592  0.694448  0.619701  1
  Cu  Cu19  1  0.602294  0.540938  0.861414  1
  O  O20  1  0.002349  0.224982  0.376068  1
  O  O21  1  0.670921  0.994286  0.609715  1
  O  O22  1  0.196997  0.597118  0.483709  1
  O  O23  1  0.803003  0.097118  0.016291  1
  O  O24  1  0.002349  0.275018  0.876068  1
  O  O25  1  0.997651  0.775018  0.623932  1
  O  O26  1  0.122032  0.089555  0.625100  1
  O  O27  1  0.524839  0.895040  0.122127  1
  O  O28  1  0.524839  0.604960  0.622127  1
  O  O29  1  0.335404  0.860138  0.714656  1
  O  O30  1  0.664596  0.360138  0.785344  1
  O  O31  1  0.475161  0.104960  0.877873  1
  O  O32  1  0.877968  0.910445  0.374900  1
  O  O33  1  0.858117  0.512006  0.309659  1
  O  O34  1  0.445516  0.236216  0.591203  1
  O  O35  1  0.445516  0.263784  0.091203  1
  O  O36  1  0.141883  0.012006  0.190341  1
  O  O37  1  0.475161  0.395040  0.377873  1
  O  O38  1  0.141883  0.487994  0.690341  1
  O  O39  1  0.803003  0.402882  0.516291  1
  O  O40  1  0.670921  0.505714  0.109715  1
  O  O41  1  0.664596  0.139862  0.285344  1
  O  O42  1  0.997651  0.724982  0.123932  1
  O  O43  1  0.122032  0.410445  0.125100  1
  O  O44  1  0.196997  0.902882  0.983709  1
  O  O45  1  0.554484  0.736215  0.908797  1
  O  O46  1  0.329079  0.005714  0.390285  1
  O  O47  1  0.329079  0.494286  0.890285  1
  O  O48  1  0.877968  0.589555  0.874900  1
  O  O49  1  0.554484  0.763785  0.408797  1
  O  O50  1  0.335404  0.639862  0.214656  1
  O  O51  1  0.858117  0.987994  0.809659  1
