# generated using pymatgen
data_Ca2MnSbO6
_symmetry_space_group_name_H-M   'P 1'
_cell_length_a   5.59122086
_cell_length_b   5.68313179
_cell_length_c   7.71818754
_cell_angle_alpha   90.00000000
_cell_angle_beta   90.00000000
_cell_angle_gamma   93.70040962
_symmetry_Int_Tables_number   1
_chemical_formula_structural   Ca2MnSbO6
_chemical_formula_sum   'Ca4 Mn2 Sb2 O12'
_cell_volume   244.73907872
_cell_formula_units_Z   2
loop_
 _symmetry_equiv_pos_site_id
 _symmetry_equiv_pos_as_xyz
  1  'x, y, z'
loop_
 _atom_site_type_symbol
 _atom_site_label
 _atom_site_symmetry_multiplicity
 _atom_site_fract_x
 _atom_site_fract_y
 _atom_site_fract_z
 _atom_site_occupancy
  Ca  Ca0  1  0.520841  0.560095  0.750000  1
  Ca  Ca1  1  0.479159  0.439905  0.250000  1
  Ca  Ca2  1  0.006453  0.038935  0.750000  1
  Ca  Ca3  1  0.993547  0.961065  0.250000  1
  Mn  Mn4  1  0.500000  0.000000  0.500000  1
  Mn  Mn5  1  0.500000  0.000000  0.000000  1
  Sb  Sb6  1  0.000000  0.500000  0.500000  1
  Sb  Sb7  1  0.000000  0.500000  0.000000  1
  O  O8  1  0.301971  0.702339  0.450767  1
  O  O9  1  0.180597  0.220652  0.051500  1
  O  O10  1  0.698029  0.297661  0.950767  1
  O  O11  1  0.819403  0.779348  0.551500  1
  O  O12  1  0.180597  0.220652  0.448500  1
  O  O13  1  0.819403  0.779348  0.948500  1
  O  O14  1  0.894810  0.540950  0.250000  1
  O  O15  1  0.301971  0.702339  0.049233  1
  O  O16  1  0.415599  0.962840  0.750000  1
  O  O17  1  0.698029  0.297661  0.549233  1
  O  O18  1  0.105190  0.459050  0.750000  1
  O  O19  1  0.584401  0.037160  0.250000  1
