# generated using pymatgen
data_V(GeO3)2
_symmetry_space_group_name_H-M   'P 1'
_cell_length_a   5.46232224
_cell_length_b   8.95402480
_cell_length_c   10.32729829
_cell_angle_alpha   90.00000000
_cell_angle_beta   106.90085321
_cell_angle_gamma   90.00000000
_symmetry_Int_Tables_number   1
_chemical_formula_structural   V(GeO3)2
_chemical_formula_sum   'V4 Ge8 O24'
_cell_volume   483.28987755
_cell_formula_units_Z   4
loop_
 _symmetry_equiv_pos_site_id
 _symmetry_equiv_pos_as_xyz
  1  'x, y, z'
loop_
 _atom_site_type_symbol
 _atom_site_label
 _atom_site_symmetry_multiplicity
 _atom_site_fract_x
 _atom_site_fract_y
 _atom_site_fract_z
 _atom_site_occupancy
  V  V0  1  0.960623  0.655803  0.237537  1
  V  V1  1  0.539377  0.155803  0.762463  1
  V  V2  1  0.039377  0.344197  0.762463  1
  V  V3  1  0.460623  0.844197  0.237537  1
  Ge  Ge4  1  0.852870  0.333258  0.051313  1
  Ge  Ge5  1  0.647130  0.833258  0.948687  1
  Ge  Ge6  1  0.147130  0.666742  0.948687  1
  Ge  Ge7  1  0.352870  0.166742  0.051313  1
  Ge  Ge8  1  0.106631  0.346521  0.479888  1
  Ge  Ge9  1  0.393369  0.846521  0.520112  1
  Ge  Ge10  1  0.893369  0.653479  0.520112  1
  Ge  Ge11  1  0.606631  0.153479  0.479888  1
  O  O12  1  0.350908  0.277060  0.411409  1
  O  O13  1  0.149092  0.777060  0.588591  1
  O  O14  1  0.649092  0.722940  0.588591  1
  O  O15  1  0.850908  0.222940  0.411409  1
  O  O16  1  0.182128  0.298705  0.115871  1
  O  O17  1  0.317872  0.798705  0.884129  1
  O  O18  1  0.817872  0.701295  0.884130  1
  O  O19  1  0.682128  0.201295  0.115870  1
  O  O20  1  0.581681  0.968773  0.403873  1
  O  O21  1  0.918319  0.468773  0.596127  1
  O  O22  1  0.418319  0.031227  0.596127  1
  O  O23  1  0.081681  0.531227  0.403873  1
  O  O24  1  0.313841  0.990908  0.121243  1
  O  O25  1  0.186159  0.490908  0.878757  1
  O  O26  1  0.686159  0.009092  0.878757  1
  O  O27  1  0.813841  0.509092  0.121243  1
  O  O28  1  0.758395  0.321761  0.871521  1
  O  O29  1  0.741605  0.821761  0.128479  1
  O  O30  1  0.241605  0.678239  0.128479  1
  O  O31  1  0.258395  0.178239  0.871521  1
  O  O32  1  0.275988  0.297515  0.662602  1
  O  O33  1  0.224012  0.797515  0.337398  1
  O  O34  1  0.724012  0.702485  0.337398  1
  O  O35  1  0.775988  0.202485  0.662602  1
