# generated using pymatgen
data_PrMn2O6
_symmetry_space_group_name_H-M   'P 1'
_cell_length_a   5.34834495
_cell_length_b   5.37078730
_cell_length_c   7.54883085
_cell_angle_alpha   90.01263052
_cell_angle_beta   89.99112187
_cell_angle_gamma   90.01004094
_symmetry_Int_Tables_number   1
_chemical_formula_structural   PrMn2O6
_chemical_formula_sum   'Pr2 Mn4 O12'
_cell_volume   216.83881978
_cell_formula_units_Z   2
loop_
 _symmetry_equiv_pos_site_id
 _symmetry_equiv_pos_as_xyz
  1  'x, y, z'
loop_
 _atom_site_type_symbol
 _atom_site_label
 _atom_site_symmetry_multiplicity
 _atom_site_fract_x
 _atom_site_fract_y
 _atom_site_fract_z
 _atom_site_occupancy
  Pr  Pr0  1  0.007711  0.969200  0.749865  1
  Pr  Pr1  1  0.507642  0.530638  0.250140  1
  Mn  Mn2  1  0.004933  0.494166  0.997725  1
  Mn  Mn3  1  0.004763  0.493565  0.502236  1
  Mn  Mn4  1  0.504965  0.005652  0.497712  1
  Mn  Mn5  1  0.504889  0.006058  0.002238  1
  O  O6  1  0.059096  0.491717  0.250020  1
  O  O7  1  0.223706  0.222540  0.966012  1
  O  O8  1  0.223831  0.222535  0.534077  1
  O  O9  1  0.280423  0.719363  0.535293  1
  O  O10  1  0.280563  0.719299  0.964712  1
  O  O11  1  0.425426  0.997658  0.250021  1
  O  O12  1  0.559018  0.008537  0.749979  1
  O  O13  1  0.723797  0.277573  0.034037  1
  O  O14  1  0.723636  0.277541  0.465957  1
  O  O15  1  0.780488  0.780744  0.035266  1
  O  O16  1  0.780596  0.780780  0.464713  1
  O  O17  1  0.925387  0.502435  0.749997  1
