# generated using pymatgen
data_VZnP2O7
_symmetry_space_group_name_H-M   'P 1'
_cell_length_a   7.11496128
_cell_length_b   8.56148153
_cell_length_c   9.15909930
_cell_angle_alpha   90.00000000
_cell_angle_beta   112.55205762
_cell_angle_gamma   90.00000000
_symmetry_Int_Tables_number   1
_chemical_formula_structural   VZnP2O7
_chemical_formula_sum   'V4 Zn4 P8 O28'
_cell_volume   515.25940071
_cell_formula_units_Z   4
loop_
 _symmetry_equiv_pos_site_id
 _symmetry_equiv_pos_as_xyz
  1  'x, y, z'
loop_
 _atom_site_type_symbol
 _atom_site_label
 _atom_site_symmetry_multiplicity
 _atom_site_fract_x
 _atom_site_fract_y
 _atom_site_fract_z
 _atom_site_occupancy
  V  V0  1  0.374341  0.073813  0.609843  1
  V  V1  1  0.625659  0.926187  0.390157  1
  V  V2  1  0.125659  0.573813  0.890157  1
  V  V3  1  0.874341  0.426187  0.109843  1
  Zn  Zn4  1  0.118367  0.943165  0.816454  1
  Zn  Zn5  1  0.381633  0.443165  0.683546  1
  Zn  Zn6  1  0.618367  0.556835  0.316454  1
  Zn  Zn7  1  0.881633  0.056835  0.183546  1
  P  P8  1  0.181010  0.733456  0.242446  1
  P  P9  1  0.437116  0.224135  0.969740  1
  P  P10  1  0.681010  0.766544  0.742446  1
  P  P11  1  0.937116  0.275865  0.469740  1
  P  P12  1  0.318990  0.233456  0.257554  1
  P  P13  1  0.062884  0.724135  0.530260  1
  P  P14  1  0.562884  0.775865  0.030260  1
  P  P15  1  0.818990  0.266544  0.757554  1
  O  O16  1  0.352988  0.175837  0.101496  1
  O  O17  1  0.576974  0.611272  0.688295  1
  O  O18  1  0.076974  0.888728  0.188295  1
  O  O19  1  0.350116  0.384403  0.899277  1
  O  O20  1  0.647012  0.824163  0.898504  1
  O  O21  1  0.403262  0.100004  0.376855  1
  O  O22  1  0.649884  0.615597  0.100723  1
  O  O23  1  0.359056  0.090976  0.848062  1
  O  O24  1  0.170530  0.271076  0.549231  1
  O  O25  1  0.596737  0.899996  0.623145  1
  O  O26  1  0.903263  0.399996  0.876855  1
  O  O27  1  0.915124  0.760828  0.798979  1
  O  O28  1  0.584876  0.260828  0.701021  1
  O  O29  1  0.852988  0.324163  0.601496  1
  O  O30  1  0.096737  0.600004  0.123145  1
  O  O31  1  0.923026  0.111272  0.811705  1
  O  O32  1  0.084876  0.239172  0.201021  1
  O  O33  1  0.640944  0.909025  0.151938  1
  O  O34  1  0.670530  0.228924  0.049231  1
  O  O35  1  0.329470  0.771076  0.950769  1
  O  O36  1  0.149884  0.884403  0.600723  1
  O  O37  1  0.859056  0.409025  0.348062  1
  O  O38  1  0.140944  0.590975  0.651938  1
  O  O39  1  0.423026  0.388728  0.311705  1
  O  O40  1  0.415124  0.739172  0.298979  1
  O  O41  1  0.850116  0.115597  0.399277  1
  O  O42  1  0.829470  0.728924  0.450769  1
  O  O43  1  0.147012  0.675837  0.398504  1
