# generated using pymatgen
data_Ca3(CrN3)2
_symmetry_space_group_name_H-M   'P 1'
_cell_length_a   4.90685355
_cell_length_b   7.52742019
_cell_length_c   5.91231137
_cell_angle_alpha   115.34148308
_cell_angle_beta   90.00000000
_cell_angle_gamma   90.00000000
_symmetry_Int_Tables_number   1
_chemical_formula_structural   Ca3(CrN3)2
_chemical_formula_sum   'Ca3 Cr2 N6'
_cell_volume   197.36305904
_cell_formula_units_Z   1
loop_
 _symmetry_equiv_pos_site_id
 _symmetry_equiv_pos_as_xyz
  1  'x, y, z'
loop_
 _atom_site_type_symbol
 _atom_site_label
 _atom_site_symmetry_multiplicity
 _atom_site_fract_x
 _atom_site_fract_y
 _atom_site_fract_z
 _atom_site_occupancy
  Ca  Ca0  1  0.750000  0.115203  0.947901  1
  Ca  Ca1  1  0.250000  0.902463  0.086596  1
  Ca  Ca2  1  0.750000  0.549929  0.703345  1
  Cr  Cr3  1  0.750000  0.713212  0.278269  1
  Cr  Cr4  1  0.250000  0.299892  0.762887  1
  N  N5  1  0.750000  0.465507  0.131967  1
  N  N6  1  0.250000  0.136491  0.898323  1
  N  N7  1  0.750000  0.855666  0.112556  1
  N  N8  1  0.250000  0.195331  0.455148  1
  N  N9  1  0.250000  0.551908  0.863590  1
  N  N10  1  0.750000  0.809967  0.589908  1
