# generated using pymatgen
data_Ca(SbO2)4
_symmetry_space_group_name_H-M   'P 1'
_cell_length_a   6.86697247
_cell_length_b   6.86697339
_cell_length_c   6.86697308
_cell_angle_alpha   60.06926749
_cell_angle_beta   60.06925304
_cell_angle_gamma   60.06926757
_symmetry_Int_Tables_number   1
_chemical_formula_structural   Ca(SbO2)4
_chemical_formula_sum   'Ca1 Sb4 O8'
_cell_volume   229.33069298
_cell_formula_units_Z   1
loop_
 _symmetry_equiv_pos_site_id
 _symmetry_equiv_pos_as_xyz
  1  'x, y, z'
loop_
 _atom_site_type_symbol
 _atom_site_label
 _atom_site_symmetry_multiplicity
 _atom_site_fract_x
 _atom_site_fract_y
 _atom_site_fract_z
 _atom_site_occupancy
  Ca  Ca0  1  0.500000  0.500001  0.499999  1
  Sb  Sb1  1  0.500001  0.999999  0.500001  1
  Sb  Sb2  1  0.999999  0.500000  0.500001  1
  Sb  Sb3  1  0.500000  0.500000  0.000000  1
  Sb  Sb4  1  0.000000  0.000000  0.000000  1
  O  O5  1  0.753421  0.288528  0.753421  1
  O  O6  1  0.246578  0.246579  0.711472  1
  O  O7  1  0.246578  0.711473  0.246578  1
  O  O8  1  0.711471  0.246579  0.246579  1
  O  O9  1  0.275279  0.275280  0.275279  1
  O  O10  1  0.724721  0.724721  0.724721  1
  O  O11  1  0.288529  0.753422  0.753421  1
  O  O12  1  0.753422  0.753422  0.288528  1
