# generated using pymatgen
data_MgV2O4
_symmetry_space_group_name_H-M   'P 1'
_cell_length_a   6.07542436
_cell_length_b   6.00474948
_cell_length_c   5.98151689
_cell_angle_alpha   88.97904545
_cell_angle_beta   120.51702555
_cell_angle_gamma   120.38753690
_symmetry_Int_Tables_number   1
_chemical_formula_structural   MgV2O4
_chemical_formula_sum   'Mg2 V4 O8'
_cell_volume   153.54286944
_cell_formula_units_Z   2
loop_
 _symmetry_equiv_pos_site_id
 _symmetry_equiv_pos_as_xyz
  1  'x, y, z'
loop_
 _atom_site_type_symbol
 _atom_site_label
 _atom_site_symmetry_multiplicity
 _atom_site_fract_x
 _atom_site_fract_y
 _atom_site_fract_z
 _atom_site_occupancy
  Mg  Mg0  1  0.000022  0.000007  0.000013  1
  Mg  Mg1  1  0.499997  0.999995  -0.000007  1
  V  V2  1  0.500010  0.999987  0.500028  1
  V  V3  1  0.500032  0.500026  0.500009  1
  V  V4  1  -0.000028  0.499978  -0.000016  1
  V  V5  1  0.000005  0.500001  0.500001  1
  O  O6  1  0.030158  0.744046  0.255108  1
  O  O7  1  0.496966  0.752543  0.741241  1
  O  O8  1  0.468884  0.743922  0.254992  1
  O  O9  1  0.992061  0.736928  0.747054  1
  O  O10  1  0.531123  0.256073  0.745011  1
  O  O11  1  0.503033  0.247444  0.258753  1
  O  O12  1  0.007945  0.263059  0.252962  1
  O  O13  1  0.969843  0.255955  0.744895  1
