# generated using pymatgen
data_PrMgCr2O6
_symmetry_space_group_name_H-M   'P 1'
_cell_length_a   5.28559051
_cell_length_b   5.43502340
_cell_length_c   7.71840071
_cell_angle_alpha   90.00399426
_cell_angle_beta   89.69431170
_cell_angle_gamma   90.00634347
_symmetry_Int_Tables_number   1
_chemical_formula_structural   PrMgCr2O6
_chemical_formula_sum   'Pr2 Mg2 Cr4 O12'
_cell_volume   221.72571757
_cell_formula_units_Z   2
loop_
 _symmetry_equiv_pos_site_id
 _symmetry_equiv_pos_as_xyz
  1  'x, y, z'
loop_
 _atom_site_type_symbol
 _atom_site_label
 _atom_site_symmetry_multiplicity
 _atom_site_fract_x
 _atom_site_fract_y
 _atom_site_fract_z
 _atom_site_occupancy
  Pr  Pr0  1  0.008445  0.951107  0.750108  1
  Pr  Pr1  1  0.508285  0.548888  0.250090  1
  Mg  Mg2  1  0.480127  0.444456  0.751527  1
  Mg  Mg3  1  0.980118  0.055354  0.251429  1
  Cr  Cr4  1  0.996474  0.492978  0.000453  1
  Cr  Cr5  1  0.997811  0.496713  0.500338  1
  Cr  Cr6  1  0.496593  0.007045  0.500452  1
  Cr  Cr7  1  0.497774  0.003250  0.000307  1
  O  O8  1  0.083513  0.444449  0.248699  1
  O  O9  1  0.211935  0.224899  0.943197  1
  O  O10  1  0.225137  0.216818  0.555274  1
  O  O11  1  0.318228  0.699741  0.556727  1
  O  O12  1  0.306130  0.690642  0.941579  1
  O  O13  1  0.372257  0.976044  0.252262  1
  O  O14  1  0.583730  0.055465  0.748665  1
  O  O15  1  0.725028  0.283290  0.055139  1
  O  O16  1  0.711810  0.275258  0.443141  1
  O  O17  1  0.818235  0.800372  0.056738  1
  O  O18  1  0.806036  0.809336  0.441567  1
  O  O19  1  0.872331  0.523892  0.752307  1
