# generated using pymatgen
data_V3Zn3(AsO4)4
_symmetry_space_group_name_H-M   'P 1'
_cell_length_a   5.17231399
_cell_length_b   9.06854992
_cell_length_c   15.32580746
_cell_angle_alpha   105.93131167
_cell_angle_beta   90.00000000
_cell_angle_gamma   90.00000000
_symmetry_Int_Tables_number   1
_chemical_formula_structural   V3Zn3(AsO4)4
_chemical_formula_sum   'V6 Zn6 As8 O32'
_cell_volume   691.25245554
_cell_formula_units_Z   2
loop_
 _symmetry_equiv_pos_site_id
 _symmetry_equiv_pos_as_xyz
  1  'x, y, z'
loop_
 _atom_site_type_symbol
 _atom_site_label
 _atom_site_symmetry_multiplicity
 _atom_site_fract_x
 _atom_site_fract_y
 _atom_site_fract_z
 _atom_site_occupancy
  V  V0  1  0.059252  0.360705  0.119212  1
  V  V1  1  0.940748  0.639295  0.880788  1
  V  V2  1  0.559252  0.139295  0.380788  1
  V  V3  1  0.440748  0.860705  0.619212  1
  V  V4  1  0.500000  0.500000  0.000000  1
  V  V5  1  -0.000000  -0.000000  0.500000  1
  Zn  Zn6  1  0.954198  0.004226  0.724865  1
  Zn  Zn7  1  0.454198  0.495774  0.775135  1
  Zn  Zn8  1  0.045802  0.995774  0.275135  1
  Zn  Zn9  1  0.545802  0.504226  0.224865  1
  Zn  Zn10  1  -0.000000  -0.000000  0.000000  1
  Zn  Zn11  1  0.500000  0.500000  0.500000  1
  As  As12  1  0.511407  0.898561  0.845935  1
  As  As13  1  0.969466  0.288408  0.902340  1
  As  As14  1  0.469466  0.211592  0.597660  1
  As  As15  1  0.530534  0.788408  0.402340  1
  As  As16  1  0.488593  0.101439  0.154065  1
  As  As17  1  0.030534  0.711592  0.097660  1
  As  As18  1  0.988593  0.398561  0.345935  1
  As  As19  1  0.011407  0.601439  0.654065  1
  O  O20  1  0.083134  0.546912  0.756710  1
  O  O21  1  0.599904  0.273825  0.500795  1
  O  O22  1  0.127314  0.173310  0.808392  1
  O  O23  1  0.144986  0.784039  0.683126  1
  O  O24  1  0.872686  0.826690  0.191608  1
  O  O25  1  0.416866  0.046912  0.256710  1
  O  O26  1  0.627314  0.326690  0.691608  1
  O  O27  1  0.831022  0.004074  0.389280  1
  O  O28  1  0.813608  0.529486  0.422947  1
  O  O29  1  0.916866  0.453088  0.243290  1
  O  O30  1  0.355014  0.284039  0.183126  1
  O  O31  1  0.168978  0.995926  0.610720  1
  O  O32  1  0.177297  0.471653  0.921919  1
  O  O33  1  0.186392  0.470514  0.577053  1
  O  O34  1  0.804138  0.125959  0.125060  1
  O  O35  1  0.304138  0.374041  0.374940  1
  O  O36  1  0.677297  0.028347  0.578081  1
  O  O37  1  0.372686  0.673310  0.308392  1
  O  O38  1  0.313608  0.970514  0.077053  1
  O  O39  1  0.331022  0.495926  0.110720  1
  O  O40  1  0.695862  0.625959  0.625060  1
  O  O41  1  0.195862  0.874041  0.874940  1
  O  O42  1  0.400096  0.726175  0.499205  1
  O  O43  1  0.099904  0.226175  0.999205  1
  O  O44  1  0.822703  0.528347  0.078081  1
  O  O45  1  0.583134  0.953088  0.743290  1
  O  O46  1  0.855014  0.215961  0.316874  1
  O  O47  1  0.686392  0.029486  0.922947  1
  O  O48  1  0.900096  0.773825  0.000795  1
  O  O49  1  0.668978  0.504074  0.889280  1
  O  O50  1  0.322703  0.971653  0.421919  1
  O  O51  1  0.644986  0.715961  0.816874  1
