# generated using pymatgen
data_YSn(WO4)2
_symmetry_space_group_name_H-M   'P 1'
_cell_length_a   5.36039149
_cell_length_b   5.70939037
_cell_length_c   10.40092566
_cell_angle_alpha   90.00542788
_cell_angle_beta   96.56704478
_cell_angle_gamma   90.00360920
_symmetry_Int_Tables_number   1
_chemical_formula_structural   YSn(WO4)2
_chemical_formula_sum   'Y2 Sn2 W4 O16'
_cell_volume   316.22726748
_cell_formula_units_Z   2
loop_
 _symmetry_equiv_pos_site_id
 _symmetry_equiv_pos_as_xyz
  1  'x, y, z'
loop_
 _atom_site_type_symbol
 _atom_site_label
 _atom_site_symmetry_multiplicity
 _atom_site_fract_x
 _atom_site_fract_y
 _atom_site_fract_z
 _atom_site_occupancy
  Y  Y0  1  0.250080  0.728527  0.250014  1
  Y  Y1  1  0.749919  0.271472  0.749986  1
  Sn  Sn2  1  0.750028  0.321963  0.250000  1
  Sn  Sn3  1  0.249972  0.678036  0.750000  1
  W  W4  1  0.250275  0.172268  0.498047  1
  W  W5  1  0.249748  0.172293  0.001936  1
  W  W6  1  0.749725  0.827732  0.501953  1
  W  W7  1  0.750252  0.827707  0.998064  1
  O  O8  1  0.389284  0.393388  0.130076  1
  O  O9  1  0.110804  0.393362  0.369885  1
  O  O10  1  0.610716  0.606611  0.869924  1
  O  O11  1  0.889195  0.606637  0.630115  1
  O  O12  1  0.494732  0.929254  0.614042  1
  O  O13  1  0.005347  0.929070  0.885992  1
  O  O14  1  0.505268  0.070746  0.385958  1
  O  O15  1  0.994653  0.070930  0.114008  1
  O  O16  1  0.888341  0.609964  0.131177  1
  O  O17  1  0.611696  0.609830  0.368912  1
  O  O18  1  0.111659  0.390037  0.868823  1
  O  O19  1  0.388304  0.390171  0.631088  1
  O  O20  1  0.466706  0.902446  0.101150  1
  O  O21  1  0.533294  0.097555  0.898850  1
  O  O22  1  0.033239  0.902458  0.398830  1
  O  O23  1  0.966761  0.097543  0.601170  1
