# generated using pymatgen
data_V2Zn3(SiO4)3
_symmetry_space_group_name_H-M   'P 1'
_cell_length_a   10.30937921
_cell_length_b   10.30937949
_cell_length_c   10.30937916
_cell_angle_alpha   109.47122186
_cell_angle_beta   109.47122236
_cell_angle_gamma   109.47121835
_symmetry_Int_Tables_number   1
_chemical_formula_structural   V2Zn3(SiO4)3
_chemical_formula_sum   'V8 Zn12 Si12 O48'
_cell_volume   843.48168953
_cell_formula_units_Z   4
loop_
 _symmetry_equiv_pos_site_id
 _symmetry_equiv_pos_as_xyz
  1  'x, y, z'
loop_
 _atom_site_type_symbol
 _atom_site_label
 _atom_site_symmetry_multiplicity
 _atom_site_fract_x
 _atom_site_fract_y
 _atom_site_fract_z
 _atom_site_occupancy
  V  V0  1  0.000000  0.000000  0.000000  1
  V  V1  1  0.000000  0.500000  0.000000  1
  V  V2  1  0.000000  0.000000  0.500000  1
  V  V3  1  0.000000  0.500000  0.500000  1
  V  V4  1  0.500000  0.000000  0.500000  1
  V  V5  1  0.500000  0.500000  0.000000  1
  V  V6  1  0.500000  0.500000  0.500000  1
  V  V7  1  0.500000  0.000000  0.000000  1
  Zn  Zn8  1  0.375000  0.750000  0.125000  1
  Zn  Zn9  1  0.125000  0.250000  0.375000  1
  Zn  Zn10  1  0.375000  0.125000  0.250000  1
  Zn  Zn11  1  0.125000  0.375000  0.750000  1
  Zn  Zn12  1  0.875000  0.750000  0.625000  1
  Zn  Zn13  1  0.750000  0.125000  0.375000  1
  Zn  Zn14  1  0.750000  0.625000  0.875000  1
  Zn  Zn15  1  0.625000  0.250000  0.875000  1
  Zn  Zn16  1  0.250000  0.875000  0.625000  1
  Zn  Zn17  1  0.875000  0.625000  0.250000  1
  Zn  Zn18  1  0.625000  0.875000  0.750000  1
  Zn  Zn19  1  0.250000  0.375000  0.125000  1
  Si  Si20  1  0.250000  0.125000  0.875000  1
  Si  Si21  1  0.750000  0.875000  0.125000  1
  Si  Si22  1  0.375000  0.250000  0.625000  1
  Si  Si23  1  0.625000  0.375000  0.250000  1
  Si  Si24  1  0.125000  0.750000  0.875000  1
  Si  Si25  1  0.875000  0.125000  0.750000  1
  Si  Si26  1  0.750000  0.375000  0.625000  1
  Si  Si27  1  0.375000  0.625000  0.750000  1
  Si  Si28  1  0.125000  0.875000  0.250000  1
  Si  Si29  1  0.875000  0.250000  0.125000  1
  Si  Si30  1  0.625000  0.750000  0.375000  1
  Si  Si31  1  0.250000  0.625000  0.375000  1
  O  O32  1  0.290503  0.482546  0.376356  1
  O  O33  1  0.017454  0.307957  0.893810  1
  O  O34  1  0.123644  0.606190  0.914147  1
  O  O35  1  0.209497  0.585853  0.192043  1
  O  O36  1  0.209497  0.123644  0.017454  1
  O  O37  1  0.585853  0.192043  0.209497  1
  O  O38  1  0.606190  0.192043  0.482546  1
  O  O39  1  0.192043  0.209497  0.585853  1
  O  O40  1  0.893810  0.376356  0.585853  1
  O  O41  1  0.307957  0.914147  0.290503  1
  O  O42  1  0.914147  0.290503  0.307957  1
  O  O43  1  0.017454  0.209497  0.123644  1
  O  O44  1  0.192043  0.482546  0.606190  1
  O  O45  1  0.585853  0.893810  0.376356  1
  O  O46  1  0.123644  0.017454  0.209497  1
  O  O47  1  0.482546  0.606190  0.192043  1
  O  O48  1  0.376356  0.585853  0.893810  1
  O  O49  1  0.893810  0.017454  0.307957  1
  O  O50  1  0.606190  0.914147  0.123644  1
  O  O51  1  0.106190  0.623644  0.414147  1
  O  O52  1  0.914147  0.123644  0.606190  1
  O  O53  1  0.376356  0.290503  0.482546  1
  O  O54  1  0.307957  0.893810  0.017454  1
  O  O55  1  0.290503  0.307957  0.914147  1
  O  O56  1  0.709497  0.517454  0.623644  1
  O  O57  1  0.982546  0.692043  0.106190  1
  O  O58  1  0.876356  0.393810  0.085853  1
  O  O59  1  0.790503  0.414147  0.807957  1
  O  O60  1  0.790503  0.876356  0.982546  1
  O  O61  1  0.414147  0.807957  0.790503  1
  O  O62  1  0.393810  0.807957  0.517454  1
  O  O63  1  0.807957  0.790503  0.414147  1
  O  O64  1  0.709497  0.692043  0.085853  1
  O  O65  1  0.692043  0.106190  0.982546  1
  O  O66  1  0.623644  0.709497  0.517454  1
  O  O67  1  0.517454  0.623644  0.709497  1
  O  O68  1  0.085853  0.876356  0.393810  1
  O  O69  1  0.393810  0.085853  0.876356  1
  O  O70  1  0.106190  0.982546  0.692043  1
  O  O71  1  0.623644  0.414147  0.106190  1
  O  O72  1  0.517454  0.393810  0.807957  1
  O  O73  1  0.876356  0.982546  0.790503  1
  O  O74  1  0.414147  0.106190  0.623644  1
  O  O75  1  0.807957  0.517454  0.393810  1
  O  O76  1  0.982546  0.790503  0.876356  1
  O  O77  1  0.085853  0.709497  0.692043  1
  O  O78  1  0.692043  0.085853  0.709497  1
  O  O79  1  0.482546  0.376356  0.290503  1
