# generated using pymatgen
data_AlSn(WO4)2
_symmetry_space_group_name_H-M   'P 1'
_cell_length_a   5.17779859
_cell_length_b   5.66425223
_cell_length_c   9.34362657
_cell_angle_alpha   89.99958791
_cell_angle_beta   91.16724682
_cell_angle_gamma   90.00146102
_symmetry_Int_Tables_number   1
_chemical_formula_structural   AlSn(WO4)2
_chemical_formula_sum   'Al2 Sn2 W4 O16'
_cell_volume   273.97635353
_cell_formula_units_Z   2
loop_
 _symmetry_equiv_pos_site_id
 _symmetry_equiv_pos_as_xyz
  1  'x, y, z'
loop_
 _atom_site_type_symbol
 _atom_site_label
 _atom_site_symmetry_multiplicity
 _atom_site_fract_x
 _atom_site_fract_y
 _atom_site_fract_z
 _atom_site_occupancy
  Al  Al0  1  0.250017  0.666359  0.249996  1
  Al  Al1  1  0.749982  0.333640  0.750004  1
  Sn  Sn2  1  0.750015  0.364669  0.250008  1
  Sn  Sn3  1  0.249985  0.635330  0.749992  1
  W  W4  1  0.253383  0.153398  0.499428  1
  W  W5  1  0.246620  0.153399  0.000575  1
  W  W6  1  0.746617  0.846602  0.500572  1
  W  W7  1  0.753380  0.846601  0.999425  1
  O  O8  1  0.397762  0.391868  0.133152  1
  O  O9  1  0.102281  0.391887  0.366847  1
  O  O10  1  0.602238  0.608131  0.866848  1
  O  O11  1  0.897718  0.608112  0.633153  1
  O  O12  1  0.409076  0.878348  0.616648  1
  O  O13  1  0.090914  0.878356  0.883339  1
  O  O14  1  0.590924  0.121652  0.383352  1
  O  O15  1  0.909086  0.121644  0.116661  1
  O  O16  1  0.938879  0.633250  0.141745  1
  O  O17  1  0.561156  0.633256  0.358242  1
  O  O18  1  0.061121  0.366751  0.858255  1
  O  O19  1  0.438844  0.366745  0.641758  1
  O  O20  1  0.414761  0.880251  0.116750  1
  O  O21  1  0.585239  0.119750  0.883250  1
  O  O22  1  0.085240  0.880247  0.383245  1
  O  O23  1  0.914760  0.119754  0.616755  1
