# generated using pymatgen
data_SrCr(PO4)2
_symmetry_space_group_name_H-M   'P 1'
_cell_length_a   5.64875251
_cell_length_b   7.12574577
_cell_length_c   9.11255503
_cell_angle_alpha   110.12270469
_cell_angle_beta   101.79954181
_cell_angle_gamma   99.36312479
_symmetry_Int_Tables_number   1
_chemical_formula_structural   SrCr(PO4)2
_chemical_formula_sum   'Sr2 Cr2 P4 O16'
_cell_volume   326.11070955
_cell_formula_units_Z   2
loop_
 _symmetry_equiv_pos_site_id
 _symmetry_equiv_pos_as_xyz
  1  'x, y, z'
loop_
 _atom_site_type_symbol
 _atom_site_label
 _atom_site_symmetry_multiplicity
 _atom_site_fract_x
 _atom_site_fract_y
 _atom_site_fract_z
 _atom_site_occupancy
  Sr  Sr0  1  0.248337  0.770354  0.036992  1
  Sr  Sr1  1  0.751663  0.229646  0.963008  1
  Cr  Cr2  1  0.667856  0.842701  0.557353  1
  Cr  Cr3  1  0.332144  0.157299  0.442647  1
  P  P4  1  0.403483  0.434689  0.237880  1
  P  P5  1  0.596517  0.565311  0.762120  1
  P  P6  1  0.853491  0.028409  0.307112  1
  P  P7  1  0.146509  0.971591  0.692888  1
  O  O8  1  0.822417  0.556682  0.881840  1
  O  O9  1  0.638974  0.461909  0.185800  1
  O  O10  1  0.645005  0.777696  0.739261  1
  O  O11  1  0.937667  0.095866  0.701187  1
  O  O12  1  0.361026  0.538091  0.814200  1
  O  O13  1  0.975710  0.758104  0.563542  1
  O  O14  1  0.024290  0.241896  0.436458  1
  O  O15  1  0.273572  0.987944  0.861963  1
  O  O16  1  0.354995  0.222304  0.260739  1
  O  O17  1  0.726428  0.012056  0.138038  1
  O  O18  1  0.177583  0.443318  0.118160  1
  O  O19  1  0.428181  0.607193  0.409712  1
  O  O20  1  0.571819  0.392807  0.590288  1
  O  O21  1  0.640213  0.956540  0.380126  1
  O  O22  1  0.062333  0.904134  0.298813  1
  O  O23  1  0.359787  0.043460  0.619874  1
