# generated using pymatgen
data_AlMo3F15
_symmetry_space_group_name_H-M   'P 1'
_cell_length_a   10.00584798
_cell_length_b   6.10170398
_cell_length_c   9.98139746
_cell_angle_alpha   90.00219626
_cell_angle_beta   90.00146739
_cell_angle_gamma   104.45808579
_symmetry_Int_Tables_number   1
_chemical_formula_structural   AlMo3F15
_chemical_formula_sum   'Al2 Mo6 F30'
_cell_volume   590.09239146
_cell_formula_units_Z   2
loop_
 _symmetry_equiv_pos_site_id
 _symmetry_equiv_pos_as_xyz
  1  'x, y, z'
loop_
 _atom_site_type_symbol
 _atom_site_label
 _atom_site_symmetry_multiplicity
 _atom_site_fract_x
 _atom_site_fract_y
 _atom_site_fract_z
 _atom_site_occupancy
  Al  Al0  1  0.905365  0.426519  0.249995  1
  Al  Al1  1  0.427975  0.573617  0.750005  1
  Mo  Mo2  1  0.166673  0.999850  0.499920  1
  Mo  Mo3  1  0.502563  0.014691  0.456186  1
  Mo  Mo4  1  0.830818  0.985394  0.543823  1
  Mo  Mo5  1  0.166672  0.999862  0.000080  1
  Mo  Mo6  1  0.502557  0.014694  0.043808  1
  Mo  Mo7  1  0.830815  0.985398  0.956182  1
  F  F8  1  0.065722  0.589031  0.249992  1
  F  F9  1  0.546594  0.974908  0.249995  1
  F  F10  1  0.773967  0.547204  0.250002  1
  F  F11  1  0.267510  0.411258  0.749992  1
  F  F12  1  0.559237  0.452687  0.750014  1
  F  F13  1  0.786981  0.025488  0.750001  1
  F  F14  1  0.032293  0.127533  0.614471  1
  F  F15  1  0.365192  0.113215  0.588016  1
  F  F16  1  0.683942  0.176513  0.558231  1
  F  F17  1  0.301117  0.872398  0.385425  1
  F  F18  1  0.649424  0.823614  0.441722  1
  F  F19  1  0.968113  0.886524  0.411951  1
  F  F20  1  0.131286  0.732392  0.893481  1
  F  F21  1  0.452230  0.758973  0.888391  1
  F  F22  1  0.827342  0.695213  0.889354  1
  F  F23  1  0.201864  0.267514  0.106603  1
  F  F24  1  0.505931  0.304715  0.110627  1
  F  F25  1  0.881210  0.241105  0.111601  1
  F  F26  1  0.201852  0.267535  0.393423  1
  F  F27  1  0.505919  0.304713  0.389380  1
  F  F28  1  0.881222  0.241095  0.388420  1
  F  F29  1  0.131298  0.732336  0.606488  1
  F  F30  1  0.452240  0.758947  0.611580  1
  F  F31  1  0.827355  0.695201  0.610648  1
  F  F32  1  0.032286  0.127582  0.885551  1
  F  F33  1  0.365184  0.113236  0.911999  1
  F  F34  1  0.683941  0.176522  0.941761  1
  F  F35  1  0.301112  0.872381  0.114563  1
  F  F36  1  0.649414  0.823602  0.058274  1
  F  F37  1  0.968117  0.886538  0.088044  1
