# generated using pymatgen
data_CaCu2F8
_symmetry_space_group_name_H-M   'P 1'
_cell_length_a   5.45347886
_cell_length_b   5.45391263
_cell_length_c   6.44250944
_cell_angle_alpha   115.10606072
_cell_angle_beta   114.95262198
_cell_angle_gamma   89.80228398
_symmetry_Int_Tables_number   1
_chemical_formula_structural   CaCu2F8
_chemical_formula_sum   'Ca1 Cu2 F8'
_cell_volume   153.68020752
_cell_formula_units_Z   1
loop_
 _symmetry_equiv_pos_site_id
 _symmetry_equiv_pos_as_xyz
  1  'x, y, z'
loop_
 _atom_site_type_symbol
 _atom_site_label
 _atom_site_symmetry_multiplicity
 _atom_site_fract_x
 _atom_site_fract_y
 _atom_site_fract_z
 _atom_site_occupancy
  Ca  Ca0  1  0.748360  0.748486  0.501703  1
  Cu  Cu1  1  0.000540  0.498824  0.003370  1
  Cu  Cu2  1  0.499120  0.997090  0.001374  1
  F  F3  1  0.954339  0.460539  0.248089  1
  F  F4  1  0.718501  0.207517  0.764016  1
  F  F5  1  0.039310  0.545290  0.759151  1
  F  F6  1  0.207578  0.036562  0.759009  1
  F  F7  1  0.291886  0.780923  0.242272  1
  F  F8  1  0.459754  0.291304  0.243073  1
  F  F9  1  0.781295  0.947410  0.243325  1
  F  F10  1  0.550253  0.714075  0.760006  1
