# generated using pymatgen
data_VZnO2
_symmetry_space_group_name_H-M   'P 1'
_cell_length_a   2.92899916
_cell_length_b   7.84145508
_cell_length_c   9.54936739
_cell_angle_alpha   94.73816753
_cell_angle_beta   90.99172372
_cell_angle_gamma   77.05053855
_symmetry_Int_Tables_number   1
_chemical_formula_structural   VZnO2
_chemical_formula_sum   'V4 Zn4 O8'
_cell_volume   213.01768601
_cell_formula_units_Z   4
loop_
 _symmetry_equiv_pos_site_id
 _symmetry_equiv_pos_as_xyz
  1  'x, y, z'
loop_
 _atom_site_type_symbol
 _atom_site_label
 _atom_site_symmetry_multiplicity
 _atom_site_fract_x
 _atom_site_fract_y
 _atom_site_fract_z
 _atom_site_occupancy
  V  V0  1  0.676843  0.160746  0.528048  1
  V  V1  1  0.040501  0.440170  0.297499  1
  V  V2  1  0.985189  0.518080  0.739653  1
  V  V3  1  0.344337  0.802448  0.514406  1
  Zn  Zn4  1  0.670188  0.862879  0.203190  1
  Zn  Zn5  1  0.347449  0.060026  0.847861  1
  Zn  Zn6  1  0.163056  0.823135  0.978980  1
  Zn  Zn7  1  0.660921  0.311784  0.965297  1
  O  O8  1  0.900117  0.700625  0.631449  1
  O  O9  1  0.564204  0.376466  0.658444  1
  O  O10  1  0.454925  0.594801  0.371636  1
  O  O11  1  0.124287  0.259588  0.405589  1
  O  O12  1  0.246053  0.044574  0.631647  1
  O  O13  1  0.570008  0.388039  0.166655  1
  O  O14  1  0.773675  0.919805  0.408319  1
  O  O15  1  0.446521  0.576168  0.876942  1
