# generated using pymatgen
data_Mg2MnSbO6
_symmetry_space_group_name_H-M   'P 1'
_cell_length_a   5.30255671
_cell_length_b   5.40644341
_cell_length_c   7.54706490
_cell_angle_alpha   90.00000000
_cell_angle_beta   90.00000000
_cell_angle_gamma   94.70612188
_symmetry_Int_Tables_number   1
_chemical_formula_structural   Mg2MnSbO6
_chemical_formula_sum   'Mg4 Mn2 Sb2 O12'
_cell_volume   215.62962373
_cell_formula_units_Z   2
loop_
 _symmetry_equiv_pos_site_id
 _symmetry_equiv_pos_as_xyz
  1  'x, y, z'
loop_
 _atom_site_type_symbol
 _atom_site_label
 _atom_site_symmetry_multiplicity
 _atom_site_fract_x
 _atom_site_fract_y
 _atom_site_fract_z
 _atom_site_occupancy
  Mg  Mg0  1  0.528344  0.570251  0.750000  1
  Mg  Mg1  1  0.471656  0.429749  0.250000  1
  Mg  Mg2  1  0.032795  0.027016  0.750000  1
  Mg  Mg3  1  0.967205  0.972984  0.250000  1
  Mn  Mn4  1  0.500000  0.000000  0.500000  1
  Mn  Mn5  1  0.500000  0.000000  0.000000  1
  Sb  Sb6  1  0.000000  0.500000  0.500000  1
  Sb  Sb7  1  0.000000  0.500000  0.000000  1
  O  O8  1  0.330094  0.679212  0.435249  1
  O  O9  1  0.158106  0.199170  0.071471  1
  O  O10  1  0.669906  0.320788  0.935249  1
  O  O11  1  0.841894  0.800830  0.571471  1
  O  O12  1  0.158106  0.199170  0.428529  1
  O  O13  1  0.841894  0.800830  0.928529  1
  O  O14  1  0.864505  0.581557  0.250000  1
  O  O15  1  0.330094  0.679212  0.064751  1
  O  O16  1  0.390303  0.925432  0.750000  1
  O  O17  1  0.669906  0.320788  0.564751  1
  O  O18  1  0.135495  0.418443  0.750000  1
  O  O19  1  0.609697  0.074568  0.250000  1
