# generated using pymatgen
data_LaVZnFeO6
_symmetry_space_group_name_H-M   'P 1'
_cell_length_a   5.68095843
_cell_length_b   5.39508072
_cell_length_c   7.72305060
_cell_angle_alpha   89.92810131
_cell_angle_beta   90.00000000
_cell_angle_gamma   90.00000000
_symmetry_Int_Tables_number   1
_chemical_formula_structural   LaVZnFeO6
_chemical_formula_sum   'La2 V2 Zn2 Fe2 O12'
_cell_volume   236.70536235
_cell_formula_units_Z   2
loop_
 _symmetry_equiv_pos_site_id
 _symmetry_equiv_pos_as_xyz
  1  'x, y, z'
loop_
 _atom_site_type_symbol
 _atom_site_label
 _atom_site_symmetry_multiplicity
 _atom_site_fract_x
 _atom_site_fract_y
 _atom_site_fract_z
 _atom_site_occupancy
  La  La0  1  0.053146  0.985661  0.247950  1
  La  La1  1  0.446854  0.485661  0.747950  1
  V  V2  1  0.530743  -0.006513  0.496442  1
  V  V3  1  0.969257  0.493487  -0.003558  1
  Zn  Zn4  1  0.409130  0.483986  0.252007  1
  Zn  Zn5  1  0.090870  0.983986  0.752007  1
  Fe  Fe6  1  0.518353  -0.009545  0.002903  1
  Fe  Fe7  1  0.981647  0.490455  0.502903  1
  O  O8  1  0.021581  0.625182  0.752668  1
  O  O9  1  0.196775  0.202367  0.948649  1
  O  O10  1  0.197392  0.194094  0.549994  1
  O  O11  1  0.302608  0.694094  0.049994  1
  O  O12  1  0.303225  0.702367  0.448649  1
  O  O13  1  0.478419  0.125182  0.252667  1
  O  O14  1  0.494936  0.927697  0.746667  1
  O  O15  1  0.700664  0.295333  0.545718  1
  O  O16  1  0.721313  0.301736  0.957000  1
  O  O17  1  0.778687  0.801736  0.457000  1
  O  O18  1  0.799336  0.795333  0.045718  1
  O  O19  1  0.005064  0.427697  0.246667  1
