# generated using pymatgen
data_Ca3Fe2(ReO6)2
_symmetry_space_group_name_H-M   'P 1'
_cell_length_a   5.37929157
_cell_length_b   5.53661969
_cell_length_c   7.72428365
_cell_angle_alpha   89.98173129
_cell_angle_beta   90.01374666
_cell_angle_gamma   90.44949281
_symmetry_Int_Tables_number   1
_chemical_formula_structural   Ca3Fe2(ReO6)2
_chemical_formula_sum   'Ca3 Fe2 Re2 O12'
_cell_volume   230.04595023
_cell_formula_units_Z   1
loop_
 _symmetry_equiv_pos_site_id
 _symmetry_equiv_pos_as_xyz
  1  'x, y, z'
loop_
 _atom_site_type_symbol
 _atom_site_label
 _atom_site_symmetry_multiplicity
 _atom_site_fract_x
 _atom_site_fract_y
 _atom_site_fract_z
 _atom_site_occupancy
  Ca  Ca0  1  0.015500  0.057368  0.247111  1
  Ca  Ca1  1  0.490027  0.551010  0.250637  1
  Ca  Ca2  1  0.510865  0.446796  0.747519  1
  Fe  Fe3  1  0.000065  0.510477  0.995967  1
  Fe  Fe4  1  0.503302  0.999323  0.503902  1
  Re  Re5  1  0.504166  0.997323  0.991184  1
  Re  Re6  1  0.997513  0.507513  0.507779  1
  O  O7  1  0.081839  0.524353  0.742441  1
  O  O8  1  0.424775  0.016028  0.758214  1
  O  O9  1  0.919115  0.477732  0.255494  1
  O  O10  1  0.589087  0.978279  0.243815  1
  O  O11  1  0.781225  0.204138  0.963446  1
  O  O12  1  0.703719  0.694651  0.535348  1
  O  O13  1  0.219213  0.797666  0.050854  1
  O  O14  1  0.288502  0.302673  0.460465  1
  O  O15  1  0.302050  0.284306  0.043681  1
  O  O16  1  0.199291  0.781761  0.447506  1
  O  O17  1  0.797373  0.225691  0.540234  1
  O  O18  1  0.686524  0.704081  0.962000  1
