# generated using pymatgen
data_Y4V6O21
_symmetry_space_group_name_H-M   'P 1'
_cell_length_a   21.38813897
_cell_length_b   7.16368332
_cell_length_c   7.12572829
_cell_angle_alpha   60.17510611
_cell_angle_beta   60.01693904
_cell_angle_gamma   59.79189457
_symmetry_Int_Tables_number   1
_chemical_formula_structural   Y4V6O21
_chemical_formula_sum   'Y8 V12 O42'
_cell_volume   771.90012527
_cell_formula_units_Z   2
loop_
 _symmetry_equiv_pos_site_id
 _symmetry_equiv_pos_as_xyz
  1  'x, y, z'
loop_
 _atom_site_type_symbol
 _atom_site_label
 _atom_site_symmetry_multiplicity
 _atom_site_fract_x
 _atom_site_fract_y
 _atom_site_fract_z
 _atom_site_occupancy
  Y  Y0  1  0.833333  0.000000  0.000000  1
  Y  Y1  1  0.015898  0.984149  0.984666  1
  Y  Y2  1  0.333333  0.000000  0.000000  1
  Y  Y3  1  0.650769  0.015851  0.015334  1
  Y  Y4  1  0.015898  0.984149  0.483490  1
  Y  Y5  1  0.333333  0.000000  0.500000  1
  Y  Y6  1  0.650769  0.015851  0.516510  1
  Y  Y7  1  0.333333  0.500000  0.000000  1
  V  V8  1  0.165827  0.475225  0.508398  1
  V  V9  1  0.500840  0.524775  0.491602  1
  V  V10  1  0.833333  0.500000  0.500000  1
  V  V11  1  0.165827  0.475225  0.018898  1
  V  V12  1  0.500840  0.524775  0.981102  1
  V  V13  1  0.833333  0.500000  0.000000  1
  V  V14  1  0.996488  0.498035  0.506251  1
  V  V15  1  0.333333  0.500000  0.500000  1
  V  V16  1  0.670179  0.501965  0.493749  1
  V  V17  1  0.167631  0.973351  0.511878  1
  V  V18  1  0.499036  0.026649  0.488122  1
  V  V19  1  0.833333  0.000000  0.500000  1
  O  O20  1  0.192595  0.185159  0.558316  1
  O  O21  1  0.519735  0.178799  0.567635  1
  O  O22  1  0.852654  0.185403  0.570166  1
  O  O23  1  0.063231  0.186073  0.562116  1
  O  O24  1  0.392190  0.173139  0.575147  1
  O  O25  1  0.727431  0.184234  0.566736  1
  O  O26  1  0.192595  0.185159  0.178740  1
  O  O27  1  0.519735  0.178799  0.194360  1
  O  O28  1  0.852654  0.185403  0.186467  1
  O  O29  1  0.064671  0.576338  0.181322  1
  O  O30  1  0.390467  0.569736  0.185551  1
  O  O31  1  0.728560  0.564620  0.191744  1
  O  O32  1  0.146932  0.821201  0.805640  1
  O  O33  1  0.474072  0.814841  0.821260  1
  O  O34  1  0.814012  0.814597  0.813533  1
  O  O35  1  0.274477  0.826861  0.424853  1
  O  O36  1  0.603435  0.813927  0.437884  1
  O  O37  1  0.939236  0.815766  0.433264  1
  O  O38  1  0.276200  0.430264  0.426688  1
  O  O39  1  0.601995  0.423662  0.451674  1
  O  O40  1  0.938107  0.435380  0.442044  1
  O  O41  1  0.025186  0.137337  0.143553  1
  O  O42  1  0.366968  0.132032  0.133532  1
  O  O43  1  0.712526  0.066727  0.147847  1
  O  O44  1  0.152877  0.454184  0.793593  1
  O  O45  1  0.471571  0.450800  0.817243  1
  O  O46  1  0.816421  0.429878  0.810429  1
  O  O47  1  0.195096  0.549200  0.182757  1
  O  O48  1  0.513790  0.545816  0.206407  1
  O  O49  1  0.850245  0.570121  0.189571  1
  O  O50  1  0.064671  0.576338  0.548326  1
  O  O51  1  0.390467  0.569736  0.573312  1
  O  O52  1  0.728560  0.564620  0.557956  1
  O  O53  1  0.299699  0.867968  0.866468  1
  O  O54  1  0.641481  0.862663  0.856447  1
  O  O55  1  0.954140  0.933273  0.852153  1
  O  O56  1  0.146932  0.821201  0.432365  1
  O  O57  1  0.474072  0.814841  0.441684  1
  O  O58  1  0.814012  0.814597  0.429834  1
  O  O59  1  0.276200  0.430264  0.814449  1
  O  O60  1  0.601995  0.423662  0.818678  1
  O  O61  1  0.938107  0.435380  0.808256  1
