# generated using pymatgen
data_CaNiF4
_symmetry_space_group_name_H-M   'P 1'
_cell_length_a   5.40429430
_cell_length_b   5.40452756
_cell_length_c   6.52948622
_cell_angle_alpha   114.63018525
_cell_angle_beta   114.54703969
_cell_angle_gamma   89.99537876
_symmetry_Int_Tables_number   1
_chemical_formula_structural   CaNiF4
_chemical_formula_sum   'Ca2 Ni2 F8'
_cell_volume   154.19885662
_cell_formula_units_Z   2
loop_
 _symmetry_equiv_pos_site_id
 _symmetry_equiv_pos_as_xyz
  1  'x, y, z'
loop_
 _atom_site_type_symbol
 _atom_site_label
 _atom_site_symmetry_multiplicity
 _atom_site_fract_x
 _atom_site_fract_y
 _atom_site_fract_z
 _atom_site_occupancy
  Ca  Ca0  1  0.252089  0.250792  0.498263  1
  Ca  Ca1  1  0.752336  0.750585  0.498197  1
  Ni  Ni2  1  0.001329  0.500116  0.997449  1
  Ni  Ni3  1  0.502831  0.001597  -0.000451  1
  F  F4  1  0.935237  0.433566  0.246978  1
  F  F5  1  0.686443  0.185279  0.743543  1
  F  F6  1  0.066543  0.565406  0.746844  1
  F  F7  1  0.187920  0.066030  0.747755  1
  F  F8  1  0.316834  0.815137  0.250763  1
  F  F9  1  0.438307  0.315842  0.251181  1
  F  F10  1  0.817291  0.935859  0.250158  1
  F  F11  1  0.565929  0.686817  0.746651  1
