# generated using pymatgen
data_AlFe3F15
_symmetry_space_group_name_H-M   'P 1'
_cell_length_a   9.25661422
_cell_length_b   5.95012397
_cell_length_c   10.97322787
_cell_angle_alpha   90.00000000
_cell_angle_beta   90.00000000
_cell_angle_gamma   105.19137316
_symmetry_Int_Tables_number   1
_chemical_formula_structural   AlFe3F15
_chemical_formula_sum   'Al2 Fe6 F30'
_cell_volume   583.26386799
_cell_formula_units_Z   2
loop_
 _symmetry_equiv_pos_site_id
 _symmetry_equiv_pos_as_xyz
  1  'x, y, z'
loop_
 _atom_site_type_symbol
 _atom_site_label
 _atom_site_symmetry_multiplicity
 _atom_site_fract_x
 _atom_site_fract_y
 _atom_site_fract_z
 _atom_site_occupancy
  Al  Al0  1  0.907908  0.438295  0.250000  1
  Al  Al1  1  0.425425  0.561705  0.750000  1
  Fe  Fe2  1  0.166667  -0.000000  0.500000  1
  Fe  Fe3  1  0.501646  0.013290  0.502070  1
  Fe  Fe4  1  0.831687  0.986710  0.497930  1
  Fe  Fe5  1  0.166667  -0.000000  0.000000  1
  Fe  Fe6  1  0.501646  0.013290  0.997930  1
  Fe  Fe7  1  0.831687  0.986710  0.002070  1
  F  F8  1  0.090892  0.579538  0.250000  1
  F  F9  1  0.444630  0.639219  0.250000  1
  F  F10  1  0.782240  0.596432  0.250000  1
  F  F11  1  0.242441  0.420462  0.750000  1
  F  F12  1  0.551094  0.403568  0.750000  1
  F  F13  1  0.888703  0.360781  0.750000  1
  F  F14  1  0.020120  0.128516  0.586335  1
  F  F15  1  0.348985  0.121543  0.598335  1
  F  F16  1  0.693744  0.126358  0.590540  1
  F  F17  1  0.313214  0.871484  0.413665  1
  F  F18  1  0.639589  0.873642  0.409460  1
  F  F19  1  0.984348  0.878457  0.401665  1
  F  F20  1  0.119528  0.747383  0.910087  1
  F  F21  1  0.457428  0.744172  0.878002  1
  F  F22  1  0.789687  0.728248  0.909908  1
  F  F23  1  0.213806  0.252617  0.089913  1
  F  F24  1  0.543646  0.271752  0.090092  1
  F  F25  1  0.875905  0.255828  0.121998  1
  F  F26  1  0.213806  0.252617  0.410087  1
  F  F27  1  0.543646  0.271752  0.409908  1
  F  F28  1  0.875905  0.255828  0.378002  1
  F  F29  1  0.119528  0.747383  0.589913  1
  F  F30  1  0.457428  0.744172  0.621998  1
  F  F31  1  0.789687  0.728248  0.590092  1
  F  F32  1  0.020120  0.128516  0.913665  1
  F  F33  1  0.348985  0.121543  0.901665  1
  F  F34  1  0.693744  0.126358  0.909460  1
  F  F35  1  0.313214  0.871484  0.086335  1
  F  F36  1  0.639589  0.873642  0.090540  1
  F  F37  1  0.984348  0.878457  0.098335  1
