# generated using pymatgen
data_CaMn(Si2O5)2
_symmetry_space_group_name_H-M   'P 1'
_cell_length_a   7.54501103
_cell_length_b   7.54501989
_cell_length_c   15.33416722
_cell_angle_alpha   90.00000000
_cell_angle_beta   90.00000000
_cell_angle_gamma   90.00000000
_symmetry_Int_Tables_number   1
_chemical_formula_structural   CaMn(Si2O5)2
_chemical_formula_sum   'Ca4 Mn4 Si16 O40'
_cell_volume   872.93209802
_cell_formula_units_Z   4
loop_
 _symmetry_equiv_pos_site_id
 _symmetry_equiv_pos_as_xyz
  1  'x, y, z'
loop_
 _atom_site_type_symbol
 _atom_site_label
 _atom_site_symmetry_multiplicity
 _atom_site_fract_x
 _atom_site_fract_y
 _atom_site_fract_z
 _atom_site_occupancy
  Ca  Ca0  1  0.250000  0.750000  0.500001  1
  Ca  Ca1  1  0.750000  0.250000  0.499999  1
  Ca  Ca2  1  0.750000  0.250000  0.999999  1
  Ca  Ca3  1  0.250000  0.750000  0.000001  1
  Mn  Mn4  1  0.250000  0.250000  0.576016  1
  Mn  Mn5  1  0.750000  0.750000  0.923984  1
  Mn  Mn6  1  0.750000  0.750000  0.423984  1
  Mn  Mn7  1  0.250000  0.250000  0.076016  1
  Si  Si8  1  0.917354  0.502067  0.648174  1
  Si  Si9  1  0.582646  0.997933  0.648174  1
  Si  Si10  1  0.002067  0.417355  0.851826  1
  Si  Si11  1  0.502067  0.582645  0.648174  1
  Si  Si12  1  0.997933  0.917355  0.648174  1
  Si  Si13  1  0.082646  0.002067  0.851826  1
  Si  Si14  1  0.417354  0.497933  0.851826  1
  Si  Si15  1  0.497933  0.082645  0.851826  1
  Si  Si16  1  0.082646  0.497933  0.351826  1
  Si  Si17  1  0.417354  0.002067  0.351826  1
  Si  Si18  1  0.997933  0.582645  0.148174  1
  Si  Si19  1  0.497933  0.417355  0.351826  1
  Si  Si20  1  0.002067  0.082645  0.351826  1
  Si  Si21  1  0.917354  0.997933  0.148174  1
  Si  Si22  1  0.582646  0.502067  0.148174  1
  Si  Si23  1  0.502067  0.917355  0.148174  1
  O  O24  1  0.993576  0.356371  0.581837  1
  O  O25  1  0.506424  0.143629  0.581837  1
  O  O26  1  0.856371  0.493576  0.918162  1
  O  O27  1  0.356371  0.506424  0.581838  1
  O  O28  1  0.143629  0.993576  0.581838  1
  O  O29  1  0.006424  0.856371  0.918163  1
  O  O30  1  0.493576  0.643629  0.918163  1
  O  O31  1  0.643629  0.006424  0.918162  1
  O  O32  1  0.006424  0.643629  0.418163  1
  O  O33  1  0.493576  0.856371  0.418163  1
  O  O34  1  0.143629  0.506424  0.081838  1
  O  O35  1  0.643629  0.493576  0.418162  1
  O  O36  1  0.856371  0.006424  0.418162  1
  O  O37  1  0.993576  0.143629  0.081837  1
  O  O38  1  0.506424  0.356371  0.081837  1
  O  O39  1  0.004639  0.298096  0.371413  1
  O  O40  1  0.356371  0.993576  0.081838  1
  O  O41  1  0.504639  0.798096  0.628586  1
  O  O42  1  0.201904  0.495361  0.871414  1
  O  O43  1  0.701904  0.504639  0.628586  1
  O  O44  1  0.798096  0.995361  0.628586  1
  O  O45  1  0.004639  0.201904  0.871414  1
  O  O46  1  0.495361  0.298096  0.871414  1
  O  O47  1  0.298096  0.004639  0.871414  1
  O  O48  1  0.454707  0.954707  0.250000  1
  O  O49  1  0.545293  0.454707  0.250000  1
  O  O50  1  0.954707  0.045294  0.250000  1
  O  O51  1  0.045294  0.545293  0.250000  1
  O  O52  1  0.545293  0.045294  0.750000  1
  O  O53  1  0.454707  0.545293  0.750000  1
  O  O54  1  0.045294  0.954707  0.750000  1
  O  O55  1  0.954707  0.454707  0.750000  1
  O  O56  1  0.701904  0.995361  0.128586  1
  O  O57  1  0.504639  0.701904  0.128586  1
  O  O58  1  0.995361  0.798096  0.128586  1
  O  O59  1  0.201904  0.004639  0.371413  1
  O  O60  1  0.298096  0.495361  0.371413  1
  O  O61  1  0.798096  0.504639  0.128586  1
  O  O62  1  0.495361  0.201904  0.371413  1
  O  O63  1  0.995361  0.701904  0.628586  1
