# generated using pymatgen
data_CaSbF5
_symmetry_space_group_name_H-M   'P 1'
_cell_length_a   5.85657175
_cell_length_b   5.90822090
_cell_length_c   8.56590135
_cell_angle_alpha   98.47648690
_cell_angle_beta   110.16841785
_cell_angle_gamma   106.52104743
_symmetry_Int_Tables_number   1
_chemical_formula_structural   CaSbF5
_chemical_formula_sum   'Ca2 Sb2 F10'
_cell_volume   256.62356210
_cell_formula_units_Z   2
loop_
 _symmetry_equiv_pos_site_id
 _symmetry_equiv_pos_as_xyz
  1  'x, y, z'
loop_
 _atom_site_type_symbol
 _atom_site_label
 _atom_site_symmetry_multiplicity
 _atom_site_fract_x
 _atom_site_fract_y
 _atom_site_fract_z
 _atom_site_occupancy
  Ca  Ca0  1  0.220946  0.504293  0.717324  1
  Ca  Ca1  1  0.709401  0.495412  0.214503  1
  Sb  Sb2  1  0.030777  0.044753  -0.013857  1
  Sb  Sb3  1  0.440501  0.959067  0.489809  1
  F  F4  1  0.364634  0.149851  0.203115  1
  F  F5  1  0.551708  0.833137  0.701845  1
  F  F6  1  0.582864  0.712996  0.384820  1
  F  F7  1  0.910249  0.249210  0.146897  1
  F  F8  1  0.889813  0.771766  0.090305  1
  F  F9  1  0.077632  0.630621  0.467794  1
  F  F10  1  0.335049  0.386103  0.967489  1
  F  F11  1  0.822873  0.194584  0.588875  1
  F  F12  1  0.190675  0.803755  0.894132  1
  F  F13  1  0.413181  0.247923  0.655143  1
