# generated using pymatgen
data_Ca2W9O13
_symmetry_space_group_name_H-M   'P 1'
_cell_length_a   3.29645377
_cell_length_b   5.50477209
_cell_length_c   18.48463098
_cell_angle_alpha   90.31531076
_cell_angle_beta   83.60035580
_cell_angle_gamma   95.47069625
_symmetry_Int_Tables_number   1
_chemical_formula_structural   Ca2W9O13
_chemical_formula_sum   'Ca2 W9 O13'
_cell_volume   331.81336628
_cell_formula_units_Z   1
loop_
 _symmetry_equiv_pos_site_id
 _symmetry_equiv_pos_as_xyz
  1  'x, y, z'
loop_
 _atom_site_type_symbol
 _atom_site_label
 _atom_site_symmetry_multiplicity
 _atom_site_fract_x
 _atom_site_fract_y
 _atom_site_fract_z
 _atom_site_occupancy
  Ca  Ca0  1  0.448649  0.431896  0.230218  1
  Ca  Ca1  1  0.551351  0.568104  0.769782  1
  W  W2  1  0.500000  0.000000  0.500000  1
  W  W3  1  0.681343  0.324577  0.041987  1
  W  W4  1  0.318657  0.675423  0.958013  1
  W  W5  1  0.340988  0.492928  0.429875  1
  W  W6  1  0.659012  0.507072  0.570125  1
  W  W7  1  0.040312  0.866840  0.126828  1
  W  W8  1  0.959688  0.133160  0.873172  1
  W  W9  1  -0.001955  0.900649  0.337767  1
  W  W10  1  0.001955  0.099351  0.662233  1
  O  O11  1  -0.000000  0.000000  0.000000  1
  O  O12  1  0.989278  0.719370  0.234458  1
  O  O13  1  0.010722  0.280630  0.765542  1
  O  O14  1  0.521238  0.612913  0.112335  1
  O  O15  1  0.478762  0.387087  0.887665  1
  O  O16  1  0.577364  0.124512  0.138611  1
  O  O17  1  0.422636  0.875488  0.861389  1
  O  O18  1  0.547963  0.104949  0.301506  1
  O  O19  1  0.452037  0.895051  0.698494  1
  O  O20  1  -0.111639  0.530829  0.363934  1
  O  O21  1  0.111639  0.469171  0.636066  1
  O  O22  1  0.062471  0.116841  0.434274  1
  O  O23  1  0.937529  0.883160  0.565726  1
