# generated using pymatgen
data_Ca(CuO2)2
_symmetry_space_group_name_H-M   'P 1'
_cell_length_a   6.12966793
_cell_length_b   6.12966763
_cell_length_c   6.21924019
_cell_angle_alpha   59.51541103
_cell_angle_beta   59.51541772
_cell_angle_gamma   62.14088908
_symmetry_Int_Tables_number   1
_chemical_formula_structural   Ca(CuO2)2
_chemical_formula_sum   'Ca2 Cu4 O8'
_cell_volume   166.45754947
_cell_formula_units_Z   2
loop_
 _symmetry_equiv_pos_site_id
 _symmetry_equiv_pos_as_xyz
  1  'x, y, z'
loop_
 _atom_site_type_symbol
 _atom_site_label
 _atom_site_symmetry_multiplicity
 _atom_site_fract_x
 _atom_site_fract_y
 _atom_site_fract_z
 _atom_site_occupancy
  Ca  Ca0  1  0.125000  0.625000  0.625000  1
  Ca  Ca1  1  0.625000  0.125000  0.625000  1
  Cu  Cu2  1  0.983573  0.983573  0.016427  1
  Cu  Cu3  1  0.266427  0.266427  0.233573  1
  Cu  Cu4  1  0.625000  0.625000  0.125000  1
  Cu  Cu5  1  0.625000  0.625000  0.625000  1
  O  O6  1  0.404592  0.404592  0.341814  1
  O  O7  1  0.403612  0.888135  0.354127  1
  O  O8  1  0.404592  0.404592  0.849002  1
  O  O9  1  0.888135  0.403612  0.354127  1
  O  O10  1  0.361865  0.846388  0.895873  1
  O  O11  1  0.846388  0.361865  0.895873  1
  O  O12  1  0.845408  0.845408  0.400998  1
  O  O13  1  0.845408  0.845408  0.908186  1
