# generated using pymatgen
data_Zn3Cr3(AsO4)4
_symmetry_space_group_name_H-M   'P 1'
_cell_length_a   5.25985571
_cell_length_b   8.80333622
_cell_length_c   15.22486046
_cell_angle_alpha   101.01851864
_cell_angle_beta   90.00000000
_cell_angle_gamma   90.00000000
_symmetry_Int_Tables_number   1
_chemical_formula_structural   Zn3Cr3(AsO4)4
_chemical_formula_sum   'Zn6 Cr6 As8 O32'
_cell_volume   691.98026485
_cell_formula_units_Z   2
loop_
 _symmetry_equiv_pos_site_id
 _symmetry_equiv_pos_as_xyz
  1  'x, y, z'
loop_
 _atom_site_type_symbol
 _atom_site_label
 _atom_site_symmetry_multiplicity
 _atom_site_fract_x
 _atom_site_fract_y
 _atom_site_fract_z
 _atom_site_occupancy
  Zn  Zn0  1  0.973859  0.005284  0.730956  1
  Zn  Zn1  1  0.473859  0.494716  0.769044  1
  Zn  Zn2  1  0.026141  0.994716  0.269044  1
  Zn  Zn3  1  0.526141  0.505284  0.230956  1
  Zn  Zn4  1  -0.000000  -0.000000  -0.000000  1
  Zn  Zn5  1  0.500000  0.500000  0.500000  1
  Cr  Cr6  1  0.991536  0.331656  0.121173  1
  Cr  Cr7  1  0.008464  0.668344  0.878827  1
  Cr  Cr8  1  0.491536  0.168344  0.378827  1
  Cr  Cr9  1  0.508464  0.831656  0.621173  1
  Cr  Cr10  1  0.500000  0.500000  -0.000000  1
  Cr  Cr11  1  -0.000000  -0.000000  0.500000  1
  As  As12  1  0.515312  0.886793  0.850506  1
  As  As13  1  0.998412  0.311385  0.895848  1
  As  As14  1  0.498412  0.188615  0.604152  1
  As  As15  1  0.501588  0.811385  0.395848  1
  As  As16  1  0.484688  0.113207  0.149494  1
  As  As17  1  0.001588  0.688615  0.104152  1
  As  As18  1  0.984688  0.386793  0.350506  1
  As  As19  1  0.015312  0.613207  0.649494  1
  O  O20  1  0.107583  0.565828  0.751780  1
  O  O21  1  0.556642  0.267593  0.509906  1
  O  O22  1  0.093715  0.196304  0.799882  1
  O  O23  1  0.107555  0.807259  0.653948  1
  O  O24  1  0.906285  0.803696  0.200118  1
  O  O25  1  0.392417  0.065828  0.251780  1
  O  O26  1  0.593715  0.303696  0.700118  1
  O  O27  1  0.799687  0.890042  0.391544  1
  O  O28  1  0.817006  0.510472  0.427190  1
  O  O29  1  0.892417  0.434172  0.248220  1
  O  O30  1  0.392445  0.307259  0.153948  1
  O  O31  1  0.200313  0.109958  0.608456  1
  O  O32  1  0.201247  0.474802  0.911288  1
  O  O33  1  0.182993  0.489528  0.572810  1
  O  O34  1  0.811015  0.105755  0.137050  1
  O  O35  1  0.311015  0.394245  0.362950  1
  O  O36  1  0.701247  0.025198  0.588712  1
  O  O37  1  0.406285  0.696304  0.299882  1
  O  O38  1  0.317007  0.989528  0.072810  1
  O  O39  1  0.299687  0.609958  0.108456  1
  O  O40  1  0.688985  0.605755  0.637050  1
  O  O41  1  0.188985  0.894245  0.862950  1
  O  O42  1  0.443358  0.732407  0.490094  1
  O  O43  1  0.056642  0.232407  0.990094  1
  O  O44  1  0.798753  0.525198  0.088712  1
  O  O45  1  0.607583  0.934172  0.748220  1
  O  O46  1  0.892445  0.192741  0.346052  1
  O  O47  1  0.682994  0.010472  0.927190  1
  O  O48  1  0.943358  0.767593  0.009906  1
  O  O49  1  0.700313  0.390042  0.891544  1
  O  O50  1  0.298753  0.974802  0.411288  1
  O  O51  1  0.607555  0.692741  0.846052  1
