# generated using pymatgen
data_Pr(CoO3)2
_symmetry_space_group_name_H-M   'P 1'
_cell_length_a   5.30470332
_cell_length_b   5.38689247
_cell_length_c   7.59305054
_cell_angle_alpha   89.99983753
_cell_angle_beta   90.02175550
_cell_angle_gamma   89.96447831
_symmetry_Int_Tables_number   1
_chemical_formula_structural   Pr(CoO3)2
_chemical_formula_sum   'Pr2 Co4 O12'
_cell_volume   216.97794012
_cell_formula_units_Z   2
loop_
 _symmetry_equiv_pos_site_id
 _symmetry_equiv_pos_as_xyz
  1  'x, y, z'
loop_
 _atom_site_type_symbol
 _atom_site_label
 _atom_site_symmetry_multiplicity
 _atom_site_fract_x
 _atom_site_fract_y
 _atom_site_fract_z
 _atom_site_occupancy
  Pr  Pr0  1  0.009054  0.968082  0.750082  1
  Pr  Pr1  1  0.509038  0.531743  0.250023  1
  Co  Co2  1  0.007295  0.492261  0.997387  1
  Co  Co3  1  0.007441  0.491996  0.502847  1
  Co  Co4  1  0.507262  0.007694  0.497342  1
  Co  Co5  1  0.507324  0.008046  0.002768  1
  O  O6  1  0.051168  0.495716  0.249643  1
  O  O7  1  0.244583  0.211495  0.972197  1
  O  O8  1  0.245010  0.211303  0.527708  1
  O  O9  1  0.254734  0.712662  0.525805  1
  O  O10  1  0.254352  0.712153  0.974189  1
  O  O11  1  0.436932  0.992279  0.250636  1
  O  O12  1  0.551004  0.003861  0.749360  1
  O  O13  1  0.745065  0.289075  0.027553  1
  O  O14  1  0.744701  0.288562  0.472277  1
  O  O15  1  0.754576  0.787431  0.025826  1
  O  O16  1  0.754668  0.787565  0.473971  1
  O  O17  1  0.936664  0.508076  0.750386  1
