# generated using pymatgen
data_V3ZnO7
_symmetry_space_group_name_H-M   'P 1'
_cell_length_a   5.40715381
_cell_length_b   10.27496718
_cell_length_c   10.18031682
_cell_angle_alpha   90.00000000
_cell_angle_beta   90.00000000
_cell_angle_gamma   90.00000000
_symmetry_Int_Tables_number   1
_chemical_formula_structural   V3ZnO7
_chemical_formula_sum   'V12 Zn4 O28'
_cell_volume   565.60138037
_cell_formula_units_Z   4
loop_
 _symmetry_equiv_pos_site_id
 _symmetry_equiv_pos_as_xyz
  1  'x, y, z'
loop_
 _atom_site_type_symbol
 _atom_site_label
 _atom_site_symmetry_multiplicity
 _atom_site_fract_x
 _atom_site_fract_y
 _atom_site_fract_z
 _atom_site_occupancy
  V  V0  1  0.284664  0.029966  0.315238  1
  V  V1  1  0.784664  0.970034  0.184762  1
  V  V2  1  0.715336  0.529966  0.684762  1
  V  V3  1  0.215336  0.470034  0.815238  1
  V  V4  1  0.292890  0.750000  0.222404  1
  V  V5  1  0.792890  0.250000  0.277596  1
  V  V6  1  0.707110  0.250000  0.777596  1
  V  V7  1  0.207110  0.750000  0.722404  1
  V  V8  1  0.784664  0.529966  0.184762  1
  V  V9  1  0.284664  0.470034  0.315238  1
  V  V10  1  0.215336  0.029966  0.815238  1
  V  V11  1  0.715336  0.970034  0.684762  1
  Zn  Zn12  1  0.619188  0.750000  0.937504  1
  Zn  Zn13  1  0.119188  0.250000  0.562496  1
  Zn  Zn14  1  0.380812  0.250000  0.062496  1
  Zn  Zn15  1  0.880812  0.750000  0.437504  1
  O  O16  1  0.954218  0.120614  0.708042  1
  O  O17  1  0.454218  0.879386  0.791958  1
  O  O18  1  0.045782  0.620614  0.291958  1
  O  O19  1  0.545782  0.379386  0.208042  1
  O  O20  1  0.045782  0.879386  0.291958  1
  O  O21  1  0.545782  0.120614  0.208042  1
  O  O22  1  0.954218  0.379386  0.708042  1
  O  O23  1  0.454218  0.620614  0.791958  1
  O  O24  1  0.481419  0.114343  0.717832  1
  O  O25  1  0.981419  0.885657  0.782168  1
  O  O26  1  0.518581  0.614343  0.282168  1
  O  O27  1  0.018581  0.385657  0.217832  1
  O  O28  1  0.518581  0.885657  0.282168  1
  O  O29  1  0.018581  0.114343  0.217832  1
  O  O30  1  0.481419  0.385657  0.717832  1
  O  O31  1  0.981419  0.614343  0.782168  1
  O  O32  1  0.193022  0.750000  0.558272  1
  O  O33  1  0.693022  0.250000  0.941728  1
  O  O34  1  0.806978  0.250000  0.441728  1
  O  O35  1  0.306978  0.750000  0.058272  1
  O  O36  1  0.225085  0.402128  0.964886  1
  O  O37  1  0.725085  0.597872  0.535114  1
  O  O38  1  0.774915  0.902128  0.035114  1
  O  O39  1  0.274915  0.097872  0.464886  1
  O  O40  1  0.774915  0.597872  0.035114  1
  O  O41  1  0.274915  0.402128  0.464886  1
  O  O42  1  0.225085  0.097872  0.964886  1
  O  O43  1  0.725085  0.902128  0.535114  1
