# generated using pymatgen
data_CaTi2O5
_symmetry_space_group_name_H-M   'P 1'
_cell_length_a   3.64402879
_cell_length_b   4.98059018
_cell_length_c   11.82988842
_cell_angle_alpha   89.99109237
_cell_angle_beta   90.00003437
_cell_angle_gamma   90.00002875
_symmetry_Int_Tables_number   1
_chemical_formula_structural   CaTi2O5
_chemical_formula_sum   'Ca2 Ti4 O10'
_cell_volume   214.70553989
_cell_formula_units_Z   2
loop_
 _symmetry_equiv_pos_site_id
 _symmetry_equiv_pos_as_xyz
  1  'x, y, z'
loop_
 _atom_site_type_symbol
 _atom_site_label
 _atom_site_symmetry_multiplicity
 _atom_site_fract_x
 _atom_site_fract_y
 _atom_site_fract_z
 _atom_site_occupancy
  Ca  Ca0  1  0.749998  0.878005  0.250009  1
  Ca  Ca1  1  0.250000  0.121985  0.749990  1
  Ti  Ti2  1  0.249999  0.404764  0.099529  1
  Ti  Ti3  1  0.750000  0.595236  0.900477  1
  Ti  Ti4  1  0.750001  0.595313  0.599512  1
  Ti  Ti5  1  0.249998  0.404690  0.400491  1
  O  O6  1  0.750000  0.447209  0.749985  1
  O  O7  1  0.249998  0.552792  0.250013  1
  O  O8  1  0.749999  0.541771  0.075003  1
  O  O9  1  0.250001  0.458239  0.924997  1
  O  O10  1  0.749999  0.541692  0.424996  1
  O  O11  1  0.250000  0.458305  0.575007  1
  O  O12  1  0.249997  0.065194  0.371057  1
  O  O13  1  0.750002  0.934788  0.628938  1
  O  O14  1  0.750001  0.934754  0.871001  1
  O  O15  1  0.249999  0.065262  0.128997  1
