# generated using pymatgen
data_Y2Sb2O7
_symmetry_space_group_name_H-M   'P 1'
_cell_length_a   7.54776546
_cell_length_b   7.54756821
_cell_length_c   7.54786231
_cell_angle_alpha   60.00004698
_cell_angle_beta   60.00092922
_cell_angle_gamma   59.99962672
_symmetry_Int_Tables_number   1
_chemical_formula_structural   Y2Sb2O7
_chemical_formula_sum   'Y4 Sb4 O14'
_cell_volume   304.04396877
_cell_formula_units_Z   2
loop_
 _symmetry_equiv_pos_site_id
 _symmetry_equiv_pos_as_xyz
  1  'x, y, z'
loop_
 _atom_site_type_symbol
 _atom_site_label
 _atom_site_symmetry_multiplicity
 _atom_site_fract_x
 _atom_site_fract_y
 _atom_site_fract_z
 _atom_site_occupancy
  Y  Y0  1  0.500000  0.000000  0.500000  1
  Y  Y1  1  0.000000  0.500000  0.500000  1
  Y  Y2  1  0.500000  0.500000  1.000000  1
  Y  Y3  1  0.500000  0.500000  0.500000  1
  Sb  Sb4  1  0.000000  0.500000  -0.000000  1
  Sb  Sb5  1  0.500000  -0.000000  0.000000  1
  Sb  Sb6  1  0.000000  -0.000000  0.500000  1
  Sb  Sb7  1  1.000000  -0.000000  0.000000  1
  O  O8  1  0.624999  0.625001  0.624998  1
  O  O9  1  0.375001  0.374999  0.375002  1
  O  O10  1  0.342988  0.907018  0.907013  1
  O  O11  1  0.092981  0.657055  0.656997  1
  O  O12  1  0.907009  0.342974  0.907019  1
  O  O13  1  0.907025  0.907039  0.342985  1
  O  O14  1  0.343006  0.342974  0.907007  1
  O  O15  1  0.342960  0.907026  0.342986  1
  O  O16  1  0.907018  0.342945  0.343003  1
  O  O17  1  0.656994  0.657026  0.092993  1
  O  O18  1  0.092975  0.092961  0.657016  1
  O  O19  1  0.657012  0.092982  0.092987  1
  O  O20  1  0.657040  0.092973  0.657014  1
  O  O21  1  0.092990  0.657027  0.092981  1
