# generated using pymatgen
data_Ba2AlCr3O8
_symmetry_space_group_name_H-M   'P 1'
_cell_length_a   3.89705203
_cell_length_b   3.89709362
_cell_length_c   11.64664049
_cell_angle_alpha   90.01016229
_cell_angle_beta   89.99798890
_cell_angle_gamma   90.00467409
_symmetry_Int_Tables_number   1
_chemical_formula_structural   Ba2AlCr3O8
_chemical_formula_sum   'Ba2 Al1 Cr3 O8'
_cell_volume   176.87958255
_cell_formula_units_Z   1
loop_
 _symmetry_equiv_pos_site_id
 _symmetry_equiv_pos_as_xyz
  1  'x, y, z'
loop_
 _atom_site_type_symbol
 _atom_site_label
 _atom_site_symmetry_multiplicity
 _atom_site_fract_x
 _atom_site_fract_y
 _atom_site_fract_z
 _atom_site_occupancy
  Ba  Ba0  1  0.500019  0.500008  0.166734  1
  Ba  Ba1  1  0.500030  0.499964  0.833321  1
  Al  Al2  1  0.500070  0.499898  0.500002  1
  Cr  Cr3  1  0.999923  0.000192  0.352858  1
  Cr  Cr4  1  0.000316  0.999537  -0.000063  1
  Cr  Cr5  1  0.999894  -0.000004  0.647146  1
  O  O6  1  0.999851  0.500208  0.392307  1
  O  O7  1  0.499924  0.000385  0.392305  1
  O  O8  1  0.500155  -0.000033  0.000016  1
  O  O9  1  0.999984  0.000050  0.188506  1
  O  O10  1  0.999870  0.499986  0.607678  1
  O  O11  1  0.499930  0.000001  0.607680  1
  O  O12  1  -0.000001  0.000011  0.811495  1
  O  O13  1  0.000035  0.499799  0.000014  1
