# generated using pymatgen
data_BiO2
_symmetry_space_group_name_H-M   'P 1'
_cell_length_a   3.57150286
_cell_length_b   8.47651396
_cell_length_c   8.46186391
_cell_angle_alpha   87.91440407
_cell_angle_beta   77.83804906
_cell_angle_gamma   77.87194752
_symmetry_Int_Tables_number   1
_chemical_formula_structural   BiO2
_chemical_formula_sum   'Bi4 O8'
_cell_volume   244.82637211
_cell_formula_units_Z   4
loop_
 _symmetry_equiv_pos_site_id
 _symmetry_equiv_pos_as_xyz
  1  'x, y, z'
loop_
 _atom_site_type_symbol
 _atom_site_label
 _atom_site_symmetry_multiplicity
 _atom_site_fract_x
 _atom_site_fract_y
 _atom_site_fract_z
 _atom_site_occupancy
  Bi  Bi0  1  0.653384  0.186125  0.512145  1
  Bi  Bi1  1  0.165443  0.487234  0.187443  1
  Bi  Bi2  1  0.836966  0.514004  0.815748  1
  Bi  Bi3  1  0.350590  0.813823  0.490386  1
  O  O4  1  0.837664  0.704354  0.625306  1
  O  O5  1  0.460296  0.379942  0.704183  1
  O  O6  1  0.540512  0.623552  0.300478  1
  O  O7  1  0.167331  0.295312  0.375183  1
  O  O8  1  0.165197  0.055378  0.619886  1
  O  O9  1  0.784525  0.381618  0.054479  1
  O  O10  1  0.841486  0.939836  0.382418  1
  O  O11  1  0.219459  0.620998  0.945161  1
