# generated using pymatgen
data_Al13(CuSe8)3
_symmetry_space_group_name_H-M   'P 1'
_cell_length_a   7.42514990
_cell_length_b   7.42515008
_cell_length_c   22.29828254
_cell_angle_alpha   60.48853895
_cell_angle_beta   60.48853667
_cell_angle_gamma   60.50049388
_symmetry_Int_Tables_number   1
_chemical_formula_structural   Al13(CuSe8)3
_chemical_formula_sum   'Al13 Cu3 Se24'
_cell_volume   878.97092929
_cell_formula_units_Z   1
loop_
 _symmetry_equiv_pos_site_id
 _symmetry_equiv_pos_as_xyz
  1  'x, y, z'
loop_
 _atom_site_type_symbol
 _atom_site_label
 _atom_site_symmetry_multiplicity
 _atom_site_fract_x
 _atom_site_fract_y
 _atom_site_fract_z
 _atom_site_occupancy
  Al  Al0  1  0.241559  0.241559  0.091375  1
  Al  Al1  1  0.242273  0.242273  0.416477  1
  Al  Al2  1  0.249046  0.249046  0.747775  1
  Al  Al3  1  0.121380  0.629142  0.206514  1
  Al  Al4  1  0.113833  0.629266  0.542505  1
  Al  Al5  1  0.108199  0.627703  0.878739  1
  Al  Al6  1  0.629672  0.629672  0.373082  1
  Al  Al7  1  0.628451  0.628451  0.702231  1
  Al  Al8  1  0.629142  0.121380  0.206514  1
  Al  Al9  1  0.629266  0.113833  0.542505  1
  Al  Al10  1  0.627703  0.108199  0.878739  1
  Al  Al11  1  0.629765  0.629765  0.206600  1
  Al  Al12  1  0.627777  0.627777  0.879008  1
  Cu  Cu13  1  0.003812  0.003812  0.996756  1
  Cu  Cu14  1  0.998251  0.998251  0.335562  1
  Cu  Cu15  1  0.005382  0.005382  0.665528  1
  Se  Se16  1  0.385000  0.385000  0.127003  1
  Se  Se17  1  0.382257  0.382257  0.461104  1
  Se  Se18  1  0.383291  0.383291  0.794346  1
  Se  Se19  1  0.384361  0.850039  0.126827  1
  Se  Se20  1  0.384240  0.850499  0.461596  1
  Se  Se21  1  0.384640  0.846478  0.795057  1
  Se  Se22  1  0.384223  0.384223  0.283201  1
  Se  Se23  1  0.383388  0.383388  0.617506  1
  Se  Se24  1  0.382041  0.382041  0.951146  1
  Se  Se25  1  0.850039  0.384361  0.126827  1
  Se  Se26  1  0.850499  0.384240  0.461596  1
  Se  Se27  1  0.846478  0.384640  0.795057  1
  Se  Se28  1  0.396577  0.866491  0.289561  1
  Se  Se29  1  0.394698  0.869064  0.621999  1
  Se  Se30  1  0.395046  0.866492  0.957518  1
  Se  Se31  1  0.869593  0.869593  0.130265  1
  Se  Se32  1  0.870453  0.870453  0.463986  1
  Se  Se33  1  0.868004  0.868004  0.798200  1
  Se  Se34  1  0.866491  0.396577  0.289561  1
  Se  Se35  1  0.869064  0.394698  0.621999  1
  Se  Se36  1  0.866492  0.395046  0.957518  1
  Se  Se37  1  0.869443  0.869443  0.288626  1
  Se  Se38  1  0.868160  0.868160  0.623510  1
  Se  Se39  1  0.865801  0.865801  0.957487  1
