# generated using pymatgen
data_Ca2Bi3O8
_symmetry_space_group_name_H-M   'P 1'
_cell_length_a   6.97870195
_cell_length_b   6.97870222
_cell_length_c   10.42619486
_cell_angle_alpha   90.00000000
_cell_angle_beta   90.00000000
_cell_angle_gamma   120.00000280
_symmetry_Int_Tables_number   1
_chemical_formula_structural   Ca2Bi3O8
_chemical_formula_sum   'Ca4 Bi6 O16'
_cell_volume   439.74992572
_cell_formula_units_Z   2
loop_
 _symmetry_equiv_pos_site_id
 _symmetry_equiv_pos_as_xyz
  1  'x, y, z'
loop_
 _atom_site_type_symbol
 _atom_site_label
 _atom_site_symmetry_multiplicity
 _atom_site_fract_x
 _atom_site_fract_y
 _atom_site_fract_z
 _atom_site_occupancy
  Ca  Ca0  1  0.666667  0.333334  0.030262  1
  Ca  Ca1  1  0.333333  0.666666  0.530263  1
  Ca  Ca2  1  0.666667  0.333334  0.396683  1
  Ca  Ca3  1  0.333333  0.666666  0.896684  1
  Bi  Bi4  1  0.669100  0.834550  0.243755  1
  Bi  Bi5  1  0.834551  0.165451  0.743755  1
  Bi  Bi6  1  0.165451  0.330901  0.243755  1
  Bi  Bi7  1  0.834549  0.669100  0.743755  1
  Bi  Bi8  1  0.330901  0.165451  0.743755  1
  Bi  Bi9  1  0.165451  0.834550  0.243755  1
  O  O10  1  0.831963  0.168038  0.153066  1
  O  O11  1  0.663925  0.831963  0.653065  1
  O  O12  1  0.168038  0.336076  0.653065  1
  O  O13  1  0.831962  0.663925  0.153066  1
  O  O14  1  0.336075  0.168038  0.153066  1
  O  O15  1  0.168038  0.831963  0.653065  1
  O  O16  1  0.522197  0.477802  0.868078  1
  O  O17  1  0.044395  0.522197  0.368077  1
  O  O18  1  0.477803  0.955606  0.368077  1
  O  O19  1  0.522197  0.044395  0.868078  1
  O  O20  1  0.000000  0.000000  0.347022  1
  O  O21  1  0.000000  0.000000  0.847022  1
  O  O22  1  0.333333  0.666666  0.124836  1
  O  O23  1  0.955604  0.477802  0.868078  1
  O  O24  1  0.477802  0.522197  0.368077  1
  O  O25  1  0.666667  0.333334  0.624836  1
