# generated using pymatgen
data_Ca3Ge3(WO6)2
_symmetry_space_group_name_H-M   'P 1'
_cell_length_a   11.05748137
_cell_length_b   11.05748076
_cell_length_c   11.05748091
_cell_angle_alpha   109.47122092
_cell_angle_beta   109.47121979
_cell_angle_gamma   109.47121985
_symmetry_Int_Tables_number   1
_chemical_formula_structural   Ca3Ge3(WO6)2
_chemical_formula_sum   'Ca12 Ge12 W8 O48'
_cell_volume   1040.75072823
_cell_formula_units_Z   4
loop_
 _symmetry_equiv_pos_site_id
 _symmetry_equiv_pos_as_xyz
  1  'x, y, z'
loop_
 _atom_site_type_symbol
 _atom_site_label
 _atom_site_symmetry_multiplicity
 _atom_site_fract_x
 _atom_site_fract_y
 _atom_site_fract_z
 _atom_site_occupancy
  Ca  Ca0  1  0.625000  0.250000  0.875000  1
  Ca  Ca1  1  0.875000  0.750000  0.625000  1
  Ca  Ca2  1  0.750000  0.625000  0.875000  1
  Ca  Ca3  1  0.250000  0.875000  0.625000  1
  Ca  Ca4  1  0.875000  0.625000  0.250000  1
  Ca  Ca5  1  0.625000  0.875000  0.750000  1
  Ca  Ca6  1  0.375000  0.750000  0.125000  1
  Ca  Ca7  1  0.125000  0.250000  0.375000  1
  Ca  Ca8  1  0.250000  0.375000  0.125000  1
  Ca  Ca9  1  0.750000  0.125000  0.375000  1
  Ca  Ca10  1  0.125000  0.375000  0.750000  1
  Ca  Ca11  1  0.375000  0.125000  0.250000  1
  Ge  Ge12  1  0.875000  0.125000  0.750000  1
  Ge  Ge13  1  0.125000  0.875000  0.250000  1
  Ge  Ge14  1  0.250000  0.625000  0.375000  1
  Ge  Ge15  1  0.125000  0.750000  0.875000  1
  Ge  Ge16  1  0.750000  0.875000  0.125000  1
  Ge  Ge17  1  0.375000  0.250000  0.625000  1
  Ge  Ge18  1  0.625000  0.750000  0.375000  1
  Ge  Ge19  1  0.875000  0.250000  0.125000  1
  Ge  Ge20  1  0.250000  0.125000  0.875000  1
  Ge  Ge21  1  0.750000  0.375000  0.625000  1
  Ge  Ge22  1  0.375000  0.625000  0.750000  1
  Ge  Ge23  1  0.625000  0.375000  0.250000  1
  W  W24  1  0.500000  0.500000  0.500000  1
  W  W25  1  0.500000  0.500000  0.000000  1
  W  W26  1  0.500000  0.000000  0.500000  1
  W  W27  1  0.000000  0.500000  0.500000  1
  W  W28  1  0.500000  0.000000  0.000000  1
  W  W29  1  0.000000  0.000000  0.500000  1
  W  W30  1  0.000000  0.500000  0.000000  1
  W  W31  1  0.000000  0.000000  0.000000  1
  O  O32  1  0.788615  0.411993  0.808153  1
  O  O33  1  0.088007  0.876622  0.396161  1
  O  O34  1  0.691847  0.103839  0.980460  1
  O  O35  1  0.711385  0.519540  0.623378  1
  O  O36  1  0.711385  0.691847  0.088007  1
  O  O37  1  0.519540  0.623378  0.711385  1
  O  O38  1  0.103839  0.623378  0.411993  1
  O  O39  1  0.623378  0.711385  0.519540  1
  O  O40  1  0.396161  0.808153  0.519540  1
  O  O41  1  0.876622  0.980460  0.788615  1
  O  O42  1  0.980460  0.788615  0.876622  1
  O  O43  1  0.088007  0.711385  0.691847  1
  O  O44  1  0.623378  0.411993  0.103839  1
  O  O45  1  0.519540  0.396161  0.808153  1
  O  O46  1  0.691847  0.088007  0.711385  1
  O  O47  1  0.411993  0.103839  0.623378  1
  O  O48  1  0.808153  0.519540  0.396161  1
  O  O49  1  0.396161  0.088007  0.876622  1
  O  O50  1  0.103839  0.980460  0.691847  1
  O  O51  1  0.603839  0.191847  0.480460  1
  O  O52  1  0.980460  0.691847  0.103839  1
  O  O53  1  0.808153  0.788615  0.411993  1
  O  O54  1  0.876622  0.396161  0.088007  1
  O  O55  1  0.788615  0.876622  0.980460  1
  O  O56  1  0.211385  0.588007  0.191847  1
  O  O57  1  0.911993  0.123378  0.603839  1
  O  O58  1  0.308153  0.896161  0.019540  1
  O  O59  1  0.288615  0.480460  0.376622  1
  O  O60  1  0.288615  0.308153  0.911993  1
  O  O61  1  0.480460  0.376622  0.288615  1
  O  O62  1  0.896161  0.376622  0.588007  1
  O  O63  1  0.376622  0.288615  0.480460  1
  O  O64  1  0.211385  0.123378  0.019540  1
  O  O65  1  0.123378  0.603839  0.911993  1
  O  O66  1  0.191847  0.211385  0.588007  1
  O  O67  1  0.588007  0.191847  0.211385  1
  O  O68  1  0.019540  0.308153  0.896161  1
  O  O69  1  0.896161  0.019540  0.308153  1
  O  O70  1  0.603839  0.911993  0.123378  1
  O  O71  1  0.191847  0.480460  0.603839  1
  O  O72  1  0.588007  0.896161  0.376622  1
  O  O73  1  0.308153  0.911993  0.288615  1
  O  O74  1  0.480460  0.603839  0.191847  1
  O  O75  1  0.376622  0.588007  0.896161  1
  O  O76  1  0.911993  0.288615  0.308153  1
  O  O77  1  0.019540  0.211385  0.123378  1
  O  O78  1  0.123378  0.019540  0.211385  1
  O  O79  1  0.411993  0.808153  0.788615  1
