# generated using pymatgen
data_CaNi(PO3)4
_symmetry_space_group_name_H-M   'P 1'
_cell_length_a   7.49582488
_cell_length_b   7.49405624
_cell_length_c   10.09446884
_cell_angle_alpha   97.95831130
_cell_angle_beta   111.54652749
_cell_angle_gamma   108.57838051
_symmetry_Int_Tables_number   1
_chemical_formula_structural   CaNi(PO3)4
_chemical_formula_sum   'Ca2 Ni2 P8 O24'
_cell_volume   478.49116478
_cell_formula_units_Z   2
loop_
 _symmetry_equiv_pos_site_id
 _symmetry_equiv_pos_as_xyz
  1  'x, y, z'
loop_
 _atom_site_type_symbol
 _atom_site_label
 _atom_site_symmetry_multiplicity
 _atom_site_fract_x
 _atom_site_fract_y
 _atom_site_fract_z
 _atom_site_occupancy
  Ca  Ca0  1  0.702510  0.951696  0.749636  1
  Ca  Ca1  1  0.298387  0.048285  0.250320  1
  Ni  Ni2  1  0.500465  0.500245  0.499858  1
  Ni  Ni3  1  0.501209  0.000510  0.000349  1
  P  P4  1  0.502010  0.318429  0.805169  1
  P  P5  1  0.013732  0.695433  0.695313  1
  P  P6  1  0.497439  0.681287  0.194173  1
  P  P7  1  0.987394  0.304571  0.304898  1
  P  P8  1  0.752029  0.719200  0.025169  1
  P  P9  1  0.194959  0.727290  0.475367  1
  P  P10  1  0.248873  0.280342  0.975181  1
  P  P11  1  0.805870  0.272890  0.524596  1
  O  O12  1  0.312356  0.324355  0.842856  1
  O  O13  1  0.981915  0.468003  0.657673  1
  O  O14  1  0.687038  0.674626  0.156783  1
  O  O15  1  0.019052  0.531900  0.342459  1
  O  O16  1  0.703219  0.503559  0.932824  1
  O  O17  1  0.070875  0.768950  0.567547  1
  O  O18  1  0.296156  0.496109  0.066522  1
  O  O19  1  0.930030  0.230884  0.432540  1
  O  O20  1  0.462501  0.346936  0.655763  1
  O  O21  1  0.191660  0.805327  0.844660  1
  O  O22  1  0.536357  0.653296  0.343655  1
  O  O23  1  0.809598  0.194696  0.155491  1
  O  O24  1  0.536901  0.135561  0.834041  1
  O  O25  1  0.801965  0.701400  0.666299  1
  O  O26  1  0.463364  0.864458  0.165295  1
  O  O27  1  0.199032  0.298520  0.333708  1
  O  O28  1  0.612511  0.805652  0.928733  1
  O  O29  1  0.377157  0.683007  0.571336  1
  O  O30  1  0.390290  0.195845  0.072128  1
  O  O31  1  0.624087  0.317613  0.428533  1
  O  O32  1  0.981206  0.830613  0.089237  1
  O  O33  1  0.243434  0.894176  0.413079  1
  O  O34  1  0.020071  0.167142  0.912045  1
  O  O35  1  0.756700  0.105931  0.586734  1
