# generated using pymatgen
data_Ca2CuN2
_symmetry_space_group_name_H-M   'P 1'
_cell_length_a   4.97847774
_cell_length_b   5.97141065
_cell_length_c   6.67124912
_cell_angle_alpha   65.29486344
_cell_angle_beta   68.09126038
_cell_angle_gamma   65.36353484
_symmetry_Int_Tables_number   1
_chemical_formula_structural   Ca2CuN2
_chemical_formula_sum   'Ca4 Cu2 N4'
_cell_volume   158.95087007
_cell_formula_units_Z   2
loop_
 _symmetry_equiv_pos_site_id
 _symmetry_equiv_pos_as_xyz
  1  'x, y, z'
loop_
 _atom_site_type_symbol
 _atom_site_label
 _atom_site_symmetry_multiplicity
 _atom_site_fract_x
 _atom_site_fract_y
 _atom_site_fract_z
 _atom_site_occupancy
  Ca  Ca0  1  0.675981  0.228670  0.419368  1
  Ca  Ca1  1  0.324019  0.771330  0.580632  1
  Ca  Ca2  1  0.040161  0.681979  0.237697  1
  Ca  Ca3  1  0.959839  0.318021  0.762303  1
  Cu  Cu4  1  0.363713  0.156498  0.116077  1
  Cu  Cu5  1  0.636287  0.843502  0.883923  1
  N  N6  1  0.183203  0.232882  0.400712  1
  N  N7  1  0.816797  0.767118  0.599288  1
  N  N8  1  0.475931  0.249802  0.798335  1
  N  N9  1  0.524069  0.750198  0.201665  1
