# generated using pymatgen
data_Mg2Bi3O8
_symmetry_space_group_name_H-M   'P 1'
_cell_length_a   5.62291305
_cell_length_b   6.66653144
_cell_length_c   6.62799091
_cell_angle_alpha   120.19254156
_cell_angle_beta   110.67704608
_cell_angle_gamma   89.99999627
_symmetry_Int_Tables_number   1
_chemical_formula_structural   Mg2Bi3O8
_chemical_formula_sum   'Mg2 Bi3 O8'
_cell_volume   196.01060103
_cell_formula_units_Z   1
loop_
 _symmetry_equiv_pos_site_id
 _symmetry_equiv_pos_as_xyz
  1  'x, y, z'
loop_
 _atom_site_type_symbol
 _atom_site_label
 _atom_site_symmetry_multiplicity
 _atom_site_fract_x
 _atom_site_fract_y
 _atom_site_fract_z
 _atom_site_occupancy
  Mg  Mg0  1  0.644280  0.713005  0.426009  1
  Mg  Mg1  1  0.355721  0.286996  0.573991  1
  Bi  Bi2  1  0.500000  0.999999  0.000000  1
  Bi  Bi3  1  -0.000000  0.732380  0.000000  1
  Bi  Bi4  1  -0.000000  0.267620  0.000000  1
  O  O5  1  0.093891  0.388486  0.776974  1
  O  O6  1  0.906108  0.611513  0.223026  1
  O  O7  1  0.026557  0.882099  0.764198  1
  O  O8  1  0.973443  0.117900  0.235801  1
  O  O9  1  0.411181  0.372383  0.253389  1
  O  O10  1  0.411181  0.881005  0.253389  1
  O  O11  1  0.588820  0.118994  0.746611  1
  O  O12  1  0.588820  0.627616  0.746611  1
