# generated using pymatgen
data_Ba2MgCu3F14
_symmetry_space_group_name_H-M   'P 1'
_cell_length_a   5.26447855
_cell_length_b   7.39419053
_cell_length_c   14.55035119
_cell_angle_alpha   91.42801193
_cell_angle_beta   90.23897868
_cell_angle_gamma   110.39005767
_symmetry_Int_Tables_number   1
_chemical_formula_structural   Ba2MgCu3F14
_chemical_formula_sum   'Ba4 Mg2 Cu6 F28'
_cell_volume   530.69133885
_cell_formula_units_Z   2
loop_
 _symmetry_equiv_pos_site_id
 _symmetry_equiv_pos_as_xyz
  1  'x, y, z'
loop_
 _atom_site_type_symbol
 _atom_site_label
 _atom_site_symmetry_multiplicity
 _atom_site_fract_x
 _atom_site_fract_y
 _atom_site_fract_z
 _atom_site_occupancy
  Ba  Ba0  1  0.118525  0.377190  0.622312  1
  Ba  Ba1  1  0.257418  0.378215  0.121872  1
  Ba  Ba2  1  0.878801  0.621350  0.376198  1
  Ba  Ba3  1  0.740537  0.620348  0.876529  1
  Mg  Mg4  1  0.428480  0.000849  0.749546  1
  Mg  Mg5  1  0.569044  0.997532  0.249065  1
  Cu  Cu6  1  0.097495  0.230239  0.871586  1
  Cu  Cu7  1  0.900663  0.768243  0.126821  1
  Cu  Cu8  1  0.133134  0.234568  0.371344  1
  Cu  Cu9  1  0.864221  0.764064  0.626990  1
  Cu  Cu10  1  0.499400  0.999467  0.999505  1
  Cu  Cu11  1  0.498678  0.999476  0.499167  1
  F  F12  1  0.889430  0.983889  0.338090  1
  F  F13  1  0.862711  0.265685  0.454610  1
  F  F14  1  0.134643  0.733289  0.543712  1
  F  F15  1  0.660422  0.503096  0.594424  1
  F  F16  1  0.602216  0.102548  0.619563  1
  F  F17  1  0.505618  0.899536  0.876968  1
  F  F18  1  0.404433  0.250942  0.955654  1
  F  F19  1  0.909941  0.018823  0.161254  1
  F  F20  1  0.365241  0.317455  0.775188  1
  F  F21  1  0.337025  0.495600  0.403883  1
  F  F22  1  0.803972  0.220815  0.786011  1
  F  F23  1  0.161554  0.493579  0.904142  1
  F  F24  1  0.415938  0.220334  0.288304  1
  F  F25  1  0.194085  0.777419  0.212449  1
  F  F26  1  0.492721  0.099277  0.121842  1
  F  F27  1  0.632765  0.680969  0.223214  1
  F  F28  1  0.122013  0.836653  0.016086  1
  F  F29  1  0.107536  0.014709  0.660379  1
  F  F30  1  0.876730  0.161979  0.982604  1
  F  F31  1  0.708418  0.840855  0.518865  1
  F  F32  1  0.593975  0.747440  0.042762  1
  F  F33  1  0.581698  0.778182  0.710328  1
  F  F34  1  0.955157  0.323628  0.273736  1
  F  F35  1  0.288451  0.157955  0.479697  1
  F  F36  1  0.394793  0.896159  0.378925  1
  F  F37  1  0.088243  0.979656  0.837277  1
  F  F38  1  0.042920  0.675346  0.724610  1
  F  F39  1  0.836328  0.504868  0.094201  1
