# generated using pymatgen
data_Mn2AlS4
_symmetry_space_group_name_H-M   'P 1'
_cell_length_a   7.17791074
_cell_length_b   6.99765707
_cell_length_c   7.00185646
_cell_angle_alpha   88.76278364
_cell_angle_beta   120.86279146
_cell_angle_gamma   120.80607473
_symmetry_Int_Tables_number   1
_chemical_formula_structural   Mn2AlS4
_chemical_formula_sum   'Mn4 Al2 S8'
_cell_volume   245.03832493
_cell_formula_units_Z   2
loop_
 _symmetry_equiv_pos_site_id
 _symmetry_equiv_pos_as_xyz
  1  'x, y, z'
loop_
 _atom_site_type_symbol
 _atom_site_label
 _atom_site_symmetry_multiplicity
 _atom_site_fract_x
 _atom_site_fract_y
 _atom_site_fract_z
 _atom_site_occupancy
  Mn  Mn0  1  0.499986  0.999997  0.500007  1
  Mn  Mn1  1  0.500077  0.499973  0.500047  1
  Mn  Mn2  1  0.999985  0.499947  0.000042  1
  Mn  Mn3  1  0.999973  0.500001  0.499968  1
  Al  Al4  1  0.999981  0.000010  0.999991  1
  Al  Al5  1  0.500051  0.999999  0.000028  1
  S  S6  1  0.026359  0.756204  0.243667  1
  S  S7  1  0.509467  0.769058  0.749668  1
  S  S8  1  0.473425  0.755803  0.243947  1
  S  S9  1  0.009442  0.749681  0.769315  1
  S  S10  1  0.526572  0.244192  0.756093  1
  S  S11  1  0.490500  0.230926  0.250283  1
  S  S12  1  0.990630  0.250385  0.230703  1
  S  S13  1  0.973603  0.243789  0.756281  1
