# generated using pymatgen
data_CaCr(SiO3)2
_symmetry_space_group_name_H-M   'P 1'
_cell_length_a   5.31294974
_cell_length_b   6.89631751
_cell_length_c   6.89631775
_cell_angle_alpha   85.83858975
_cell_angle_beta   77.73122830
_cell_angle_gamma   77.73123261
_symmetry_Int_Tables_number   1
_chemical_formula_structural   CaCr(SiO3)2
_chemical_formula_sum   'Ca2 Cr2 Si4 O12'
_cell_volume   241.17035756
_cell_formula_units_Z   2
loop_
 _symmetry_equiv_pos_site_id
 _symmetry_equiv_pos_as_xyz
  1  'x, y, z'
loop_
 _atom_site_type_symbol
 _atom_site_label
 _atom_site_symmetry_multiplicity
 _atom_site_fract_x
 _atom_site_fract_y
 _atom_site_fract_z
 _atom_site_occupancy
  Ca  Ca0  1  0.750000  0.297548  0.702452  1
  Ca  Ca1  1  0.250001  0.702452  0.297549  1
  Cr  Cr2  1  0.249999  0.094774  0.905227  1
  Cr  Cr3  1  0.749999  0.905228  0.094773  1
  Si  Si4  1  0.270950  0.195318  0.377665  1
  Si  Si5  1  0.229049  0.622335  0.804682  1
  Si  Si6  1  0.770950  0.377665  0.195318  1
  Si  Si7  1  0.729050  0.804682  0.622335  1
  O  O8  1  0.506302  0.328077  0.364791  1
  O  O9  1  0.993698  0.635208  0.671924  1
  O  O10  1  0.493699  0.671924  0.635209  1
  O  O11  1  0.006301  0.364792  0.328076  1
  O  O12  1  0.173288  0.120339  0.601194  1
  O  O13  1  0.326712  0.398805  0.879660  1
  O  O14  1  0.826712  0.879661  0.398806  1
  O  O15  1  0.673287  0.601194  0.120340  1
  O  O16  1  0.860654  0.212059  0.024878  1
  O  O17  1  0.639346  0.975122  0.787940  1
  O  O18  1  0.360653  0.024878  0.212060  1
  O  O19  1  0.139347  0.787941  0.975122  1
