# generated using pymatgen
data_YCu3(WO4)6
_symmetry_space_group_name_H-M   'P 1'
_cell_length_a   15.22453655
_cell_length_b   5.99314630
_cell_length_c   9.52559664
_cell_angle_alpha   90.00000000
_cell_angle_beta   93.21666757
_cell_angle_gamma   90.00000000
_symmetry_Int_Tables_number   1
_chemical_formula_structural   YCu3(WO4)6
_chemical_formula_sum   'Y2 Cu6 W12 O48'
_cell_volume   867.77347384
_cell_formula_units_Z   2
loop_
 _symmetry_equiv_pos_site_id
 _symmetry_equiv_pos_as_xyz
  1  'x, y, z'
loop_
 _atom_site_type_symbol
 _atom_site_label
 _atom_site_symmetry_multiplicity
 _atom_site_fract_x
 _atom_site_fract_y
 _atom_site_fract_z
 _atom_site_occupancy
  Y  Y0  1  0.416667  0.660012  0.250000  1
  Y  Y1  1  0.916666  0.339987  0.750000  1
  Cu  Cu2  1  0.251925  0.292887  0.251963  1
  Cu  Cu3  1  0.581408  0.292887  0.248037  1
  Cu  Cu4  1  0.916667  0.305026  0.250000  1
  Cu  Cu5  1  0.081408  0.707112  0.748037  1
  Cu  Cu6  1  0.416667  0.694973  0.750000  1
  Cu  Cu7  1  0.751925  0.707112  0.751963  1
  W  W8  1  0.082697  0.174248  0.498325  1
  W  W9  1  0.414220  0.174333  0.512788  1
  W  W10  1  0.743167  0.166368  0.497622  1
  W  W11  1  0.090166  0.166368  0.002379  1
  W  W12  1  0.419113  0.174333  0.987213  1
  W  W13  1  0.750636  0.174248  0.001676  1
  W  W14  1  0.250637  0.825752  0.501675  1
  W  W15  1  0.590166  0.833632  0.502378  1
  W  W16  1  0.919113  0.825667  0.487212  1
  W  W17  1  0.243168  0.833632  0.997621  1
  W  W18  1  0.582697  0.825752  0.998324  1
  W  W19  1  0.914220  0.825667  0.012787  1
  O  O20  1  0.147436  0.327139  0.145510  1
  O  O21  1  0.474414  0.341718  0.141806  1
  O  O22  1  0.812362  0.334571  0.141621  1
  O  O23  1  0.020971  0.334571  0.358378  1
  O  O24  1  0.358919  0.341718  0.358193  1
  O  O25  1  0.685897  0.327139  0.354489  1
  O  O26  1  0.185898  0.672860  0.854490  1
  O  O27  1  0.520971  0.665428  0.858379  1
  O  O28  1  0.858919  0.658281  0.858194  1
  O  O29  1  0.312362  0.665428  0.641622  1
  O  O30  1  0.647436  0.672860  0.645511  1
  O  O31  1  0.974414  0.658281  0.641807  1
  O  O32  1  0.142890  0.900651  0.602251  1
  O  O33  1  0.478362  0.905060  0.604693  1
  O  O34  1  0.812239  0.905078  0.605162  1
  O  O35  1  0.021094  0.905078  0.894838  1
  O  O36  1  0.354972  0.905060  0.895307  1
  O  O37  1  0.690443  0.900651  0.897749  1
  O  O38  1  0.190443  0.099349  0.397749  1
  O  O39  1  0.521094  0.094922  0.394838  1
  O  O40  1  0.854972  0.094940  0.395307  1
  O  O41  1  0.312239  0.094922  0.105162  1
  O  O42  1  0.642890  0.099349  0.102251  1
  O  O43  1  0.978362  0.094940  0.104693  1
  O  O44  1  0.294860  0.613858  0.109788  1
  O  O45  1  0.620709  0.602697  0.108513  1
  O  O46  1  0.958674  0.598574  0.112485  1
  O  O47  1  0.212624  0.602697  0.391487  1
  O  O48  1  0.538473  0.613858  0.390212  1
  O  O49  1  0.874660  0.598574  0.387515  1
  O  O50  1  0.038473  0.386143  0.890212  1
  O  O51  1  0.374660  0.401427  0.887515  1
  O  O52  1  0.712624  0.397304  0.891487  1
  O  O53  1  0.120709  0.397304  0.608513  1
  O  O54  1  0.458674  0.401427  0.612485  1
  O  O55  1  0.794860  0.386143  0.609788  1
  O  O56  1  0.147957  0.889428  0.107206  1
  O  O57  1  0.482680  0.893092  0.109874  1
  O  O58  1  0.816207  0.892063  0.109062  1
  O  O59  1  0.185376  0.110573  0.892794  1
  O  O60  1  0.517127  0.107938  0.890938  1
  O  O61  1  0.850653  0.106910  0.890126  1
  O  O62  1  0.017127  0.892063  0.390939  1
  O  O63  1  0.350653  0.893092  0.390127  1
  O  O64  1  0.685377  0.889428  0.392795  1
  O  O65  1  0.316206  0.107938  0.609061  1
  O  O66  1  0.647957  0.110573  0.607205  1
  O  O67  1  0.982680  0.106910  0.609873  1
