# generated using pymatgen
data_ZnCr5O7
_symmetry_space_group_name_H-M   'P 1'
_cell_length_a   2.99574702
_cell_length_b   5.33734349
_cell_length_c   18.40000293
_cell_angle_alpha   90.00000000
_cell_angle_beta   90.00000000
_cell_angle_gamma   106.29841647
_symmetry_Int_Tables_number   1
_chemical_formula_structural   ZnCr5O7
_chemical_formula_sum   'Zn2 Cr10 O14'
_cell_volume   282.38058331
_cell_formula_units_Z   2
loop_
 _symmetry_equiv_pos_site_id
 _symmetry_equiv_pos_as_xyz
  1  'x, y, z'
loop_
 _atom_site_type_symbol
 _atom_site_label
 _atom_site_symmetry_multiplicity
 _atom_site_fract_x
 _atom_site_fract_y
 _atom_site_fract_z
 _atom_site_occupancy
  Zn  Zn0  1  0.796499  0.592995  0.750000  1
  Zn  Zn1  1  0.203502  0.407004  0.250000  1
  Cr  Cr2  1  0.274338  0.548674  0.577484  1
  Cr  Cr3  1  0.458856  0.917711  0.154914  1
  Cr  Cr4  1  0.000000  -0.000000  0.500000  1
  Cr  Cr5  1  -0.000000  -0.000000  0.000000  1
  Cr  Cr6  1  0.541144  0.082288  0.845087  1
  Cr  Cr7  1  0.725662  0.451326  0.422516  1
  Cr  Cr8  1  0.725662  0.451326  0.077484  1
  Cr  Cr9  1  0.274338  0.548674  0.922516  1
  Cr  Cr10  1  0.541144  0.082288  0.654913  1
  Cr  Cr11  1  0.458856  0.917711  0.345087  1
  O  O12  1  0.630439  0.260877  0.975717  1
  O  O13  1  0.369562  0.739124  0.024283  1
  O  O14  1  0.369562  0.739124  0.475717  1
  O  O15  1  0.630439  0.260877  0.524283  1
  O  O16  1  0.176847  0.353695  0.827129  1
  O  O17  1  0.823153  0.646305  0.172871  1
  O  O18  1  0.823153  0.646305  0.327130  1
  O  O19  1  0.176847  0.353695  0.672871  1
  O  O20  1  0.930442  0.860881  0.895717  1
  O  O21  1  0.069558  0.139119  0.104283  1
  O  O22  1  0.069558  0.139119  0.395717  1
  O  O23  1  0.930442  0.860881  0.604283  1
  O  O24  1  0.433291  0.866582  0.750000  1
  O  O25  1  0.566710  0.133420  0.250000  1
