# generated using pymatgen
data_Ni9O13
_symmetry_space_group_name_H-M   'P 1'
_cell_length_a   2.92639303
_cell_length_b   5.15980216
_cell_length_c   15.80848600
_cell_angle_alpha   99.27874572
_cell_angle_beta   90.02310603
_cell_angle_gamma   106.45730664
_symmetry_Int_Tables_number   1
_chemical_formula_structural   Ni9O13
_chemical_formula_sum   'Ni9 O13'
_cell_volume   225.65934830
_cell_formula_units_Z   1
loop_
 _symmetry_equiv_pos_site_id
 _symmetry_equiv_pos_as_xyz
  1  'x, y, z'
loop_
 _atom_site_type_symbol
 _atom_site_label
 _atom_site_symmetry_multiplicity
 _atom_site_fract_x
 _atom_site_fract_y
 _atom_site_fract_z
 _atom_site_occupancy
  Ni  Ni0  1  0.500000  0.000000  0.500000  1
  Ni  Ni1  1  0.649015  0.297745  0.045725  1
  Ni  Ni2  1  0.350985  0.702255  0.954275  1
  Ni  Ni3  1  0.749890  0.500133  0.412406  1
  Ni  Ni4  1  0.250110  0.499867  0.587594  1
  Ni  Ni5  1  0.937558  0.874770  0.124265  1
  Ni  Ni6  1  0.062442  0.125230  0.875735  1
  Ni  Ni7  1  0.996777  0.993796  0.334604  1
  Ni  Ni8  1  0.003223  0.006204  0.665396  1
  O  O9  1  0.000000  0.000000  0.000000  1
  O  O10  1  0.880338  0.760862  0.231029  1
  O  O11  1  0.119662  0.239138  0.768971  1
  O  O12  1  0.300752  0.600873  0.072177  1
  O  O13  1  0.699248  0.399127  0.927823  1
  O  O14  1  0.565830  0.132355  0.149000  1
  O  O15  1  0.434170  0.867645  0.851000  1
  O  O16  1  0.608870  0.218235  0.307285  1
  O  O17  1  0.391130  0.781765  0.692715  1
  O  O18  1  0.383152  0.767346  0.385927  1
  O  O19  1  0.616848  0.232654  0.614073  1
  O  O20  1  0.125298  0.250704  0.456149  1
  O  O21  1  0.874702  0.749296  0.543851  1
