# generated using pymatgen
data_Ca(AgO2)2
_symmetry_space_group_name_H-M   'P 1'
_cell_length_a   6.59480386
_cell_length_b   6.57692180
_cell_length_c   19.79878286
_cell_angle_alpha   60.09428844
_cell_angle_beta   60.46958929
_cell_angle_gamma   60.08580210
_symmetry_Int_Tables_number   1
_chemical_formula_structural   Ca(AgO2)2
_chemical_formula_sum   'Ca6 Ag12 O24'
_cell_volume   610.18233395
_cell_formula_units_Z   6
loop_
 _symmetry_equiv_pos_site_id
 _symmetry_equiv_pos_as_xyz
  1  'x, y, z'
loop_
 _atom_site_type_symbol
 _atom_site_label
 _atom_site_symmetry_multiplicity
 _atom_site_fract_x
 _atom_site_fract_y
 _atom_site_fract_z
 _atom_site_occupancy
  Ca  Ca0  1  0.155402  0.112153  0.040045  1
  Ca  Ca1  1  0.500872  0.502286  0.331575  1
  Ca  Ca2  1  0.004551  0.498694  0.166015  1
  Ca  Ca3  1  0.499878  0.498205  0.667906  1
  Ca  Ca4  1  0.000522  0.499651  0.500038  1
  Ca  Ca5  1  0.992709  0.502081  0.834381  1
  Ag  Ag6  1  0.503083  0.002023  0.166262  1
  Ag  Ag7  1  0.132003  0.114359  0.379885  1
  Ag  Ag8  1  0.498879  0.499754  0.000487  1
  Ag  Ag9  1  0.503185  0.496122  0.166274  1
  Ag  Ag10  1  0.499989  0.000170  0.499815  1
  Ag  Ag11  1  0.137548  0.120288  0.707335  1
  Ag  Ag12  1  0.500033  0.500307  0.499825  1
  Ag  Ag13  1  0.496399  0.000303  0.833513  1
  Ag  Ag14  1  0.865716  0.877313  0.293234  1
  Ag  Ag15  1  0.496500  0.502827  0.833499  1
  Ag  Ag16  1  0.865357  0.886370  0.620534  1
  Ag  Ag17  1  0.872687  0.877995  0.956901  1
  O  O18  1  0.297834  0.253585  0.084618  1
  O  O19  1  0.287629  0.246629  0.239830  1
  O  O20  1  0.298000  0.694589  0.084663  1
  O  O21  1  0.722717  0.255923  0.088342  1
  O  O22  1  0.280999  0.234516  0.425696  1
  O  O23  1  0.270201  0.761461  0.235822  1
  O  O24  1  0.288513  0.247606  0.572107  1
  O  O25  1  0.726784  0.287447  0.238040  1
  O  O26  1  0.281072  0.707385  0.425699  1
  O  O27  1  0.705775  0.753120  0.096017  1
  O  O28  1  0.718543  0.248170  0.428224  1
  O  O29  1  0.726946  0.771839  0.237966  1
  O  O30  1  0.272657  0.231644  0.761047  1
  O  O31  1  0.281372  0.752280  0.571502  1
  O  O32  1  0.719612  0.292389  0.573857  1
  O  O33  1  0.272982  0.712390  0.761029  1
  O  O34  1  0.291027  0.254069  0.900296  1
  O  O35  1  0.712897  0.751886  0.427708  1
  O  O36  1  0.737183  0.242657  0.759297  1
  O  O37  1  0.719730  0.766454  0.573770  1
  O  O38  1  0.269513  0.740086  0.916616  1
  O  O39  1  0.695189  0.299229  0.918320  1
  O  O40  1  0.702266  0.753552  0.763624  1
  O  O41  1  0.695246  0.750191  0.918385  1
