# generated using pymatgen
data_CrSe2
_symmetry_space_group_name_H-M   'P 1'
_cell_length_a   7.15031248
_cell_length_b   7.13765483
_cell_length_c   7.17994971
_cell_angle_alpha   59.66442024
_cell_angle_beta   59.72182608
_cell_angle_gamma   59.90728406
_symmetry_Int_Tables_number   1
_chemical_formula_structural   CrSe2
_chemical_formula_sum   'Cr4 Se8'
_cell_volume   257.72364645
_cell_formula_units_Z   4
loop_
 _symmetry_equiv_pos_site_id
 _symmetry_equiv_pos_as_xyz
  1  'x, y, z'
loop_
 _atom_site_type_symbol
 _atom_site_label
 _atom_site_symmetry_multiplicity
 _atom_site_fract_x
 _atom_site_fract_y
 _atom_site_fract_z
 _atom_site_occupancy
  Cr  Cr0  1  0.497486  0.005780  0.498410  1
  Cr  Cr1  1  0.004351  0.497603  0.499004  1
  Cr  Cr2  1  0.499383  0.498681  0.499118  1
  Cr  Cr3  1  0.499218  0.498617  0.003181  1
  Se  Se4  1  0.249970  0.251514  0.252381  1
  Se  Se5  1  0.748169  0.747703  0.259560  1
  Se  Se6  1  0.256859  0.745752  0.748735  1
  Se  Se7  1  0.746879  0.255559  0.748816  1
  Se  Se8  1  0.746531  0.253828  0.249711  1
  Se  Se9  1  0.252982  0.745547  0.250763  1
  Se  Se10  1  0.250026  0.251629  0.745705  1
  Se  Se11  1  0.748149  0.747788  0.744617  1
