# generated using pymatgen
data_Al2FeO4
_symmetry_space_group_name_H-M   'P 1'
_cell_length_a   5.83036954
_cell_length_b   5.81129999
_cell_length_c   17.55832589
_cell_angle_alpha   60.12188904
_cell_angle_beta   59.75677577
_cell_angle_gamma   60.19541525
_symmetry_Int_Tables_number   1
_chemical_formula_structural   Al2FeO4
_chemical_formula_sum   'Al12 Fe6 O24'
_cell_volume   420.88744132
_cell_formula_units_Z   6
loop_
 _symmetry_equiv_pos_site_id
 _symmetry_equiv_pos_as_xyz
  1  'x, y, z'
loop_
 _atom_site_type_symbol
 _atom_site_label
 _atom_site_symmetry_multiplicity
 _atom_site_fract_x
 _atom_site_fract_y
 _atom_site_fract_z
 _atom_site_occupancy
  Al  Al0  1  0.494400  0.494509  0.169104  1
  Al  Al1  1  0.499440  0.500766  0.333379  1
  Al  Al2  1  0.495395  0.002026  0.168439  1
  Al  Al3  1  0.002109  0.495908  0.168062  1
  Al  Al4  1  0.499809  0.501676  0.499037  1
  Al  Al5  1  0.502272  0.502055  0.664682  1
  Al  Al6  1  0.499402  0.002441  0.499408  1
  Al  Al7  1  0.000014  0.502487  0.498808  1
  Al  Al8  1  0.501629  0.498709  0.831700  1
  Al  Al9  1  0.500422  0.005731  0.831654  1
  Al  Al10  1  0.007394  0.496981  0.832427  1
  Al  Al11  1  0.879111  0.877689  0.955359  1
  Fe  Fe12  1  0.122159  0.122222  0.043237  1
  Fe  Fe13  1  0.123575  0.123967  0.376480  1
  Fe  Fe14  1  0.127210  0.124706  0.707866  1
  Fe  Fe15  1  0.877956  0.879434  0.287702  1
  Fe  Fe16  1  0.874767  0.874177  0.625966  1
  Fe  Fe17  1  0.498721  0.498576  0.002188  1
  O  O18  1  0.251245  0.248883  0.097204  1
  O  O19  1  0.256658  0.261333  0.238127  1
  O  O20  1  0.246074  0.709018  0.100612  1
  O  O21  1  0.708526  0.245265  0.100502  1
  O  O22  1  0.265069  0.264223  0.422967  1
  O  O23  1  0.302466  0.730190  0.244777  1
  O  O24  1  0.729945  0.302175  0.244825  1
  O  O25  1  0.750724  0.748541  0.084011  1
  O  O26  1  0.261701  0.267234  0.567988  1
  O  O27  1  0.266136  0.702519  0.422647  1
  O  O28  1  0.701082  0.267741  0.421755  1
  O  O29  1  0.731518  0.732070  0.244066  1
  O  O30  1  0.295294  0.733841  0.578972  1
  O  O31  1  0.270556  0.266251  0.753817  1
  O  O32  1  0.732738  0.297281  0.577332  1
  O  O33  1  0.734425  0.737923  0.431261  1
  O  O34  1  0.267003  0.265203  0.901222  1
  O  O35  1  0.270703  0.702025  0.753681  1
  O  O36  1  0.704345  0.269706  0.752180  1
  O  O37  1  0.733262  0.738408  0.577445  1
  O  O38  1  0.262554  0.759739  0.905446  1
  O  O39  1  0.760551  0.260551  0.905616  1
  O  O40  1  0.733899  0.728409  0.770538  1
  O  O41  1  0.757742  0.757411  0.907514  1
