# generated using pymatgen
data_LaZnCrCuO6
_symmetry_space_group_name_H-M   'P 1'
_cell_length_a   5.43223066
_cell_length_b   5.42548127
_cell_length_c   7.60097015
_cell_angle_alpha   90.00000000
_cell_angle_beta   89.35912508
_cell_angle_gamma   90.00000000
_symmetry_Int_Tables_number   1
_chemical_formula_structural   LaZnCrCuO6
_chemical_formula_sum   'La2 Zn2 Cr2 Cu2 O12'
_cell_volume   224.00531851
_cell_formula_units_Z   2
loop_
 _symmetry_equiv_pos_site_id
 _symmetry_equiv_pos_as_xyz
  1  'x, y, z'
loop_
 _atom_site_type_symbol
 _atom_site_label
 _atom_site_symmetry_multiplicity
 _atom_site_fract_x
 _atom_site_fract_y
 _atom_site_fract_z
 _atom_site_occupancy
  La  La0  1  0.997181  0.959128  0.752235  1
  La  La1  1  0.497181  0.540872  0.252235  1
  Zn  Zn2  1  0.489929  0.468546  0.764588  1
  Zn  Zn3  1  0.989929  0.031454  0.264588  1
  Cr  Cr4  1  0.484432  0.012566  0.504593  1
  Cr  Cr5  1  0.984432  0.487434  0.004593  1
  Cu  Cu6  1  0.489458  0.006883  0.999388  1
  Cu  Cu7  1  0.989458  0.493117  0.499388  1
  O  O8  1  0.074595  0.427619  0.247482  1
  O  O9  1  0.209424  0.268107  0.929175  1
  O  O10  1  0.216388  0.213913  0.544967  1
  O  O11  1  0.318202  0.703651  0.946044  1
  O  O12  1  0.353518  0.706300  0.560869  1
  O  O13  1  0.366872  0.971278  0.250660  1
  O  O14  1  0.574595  0.072381  0.747482  1
  O  O15  1  0.709424  0.231893  0.429175  1
  O  O16  1  0.716388  0.286087  0.044967  1
  O  O17  1  0.818202  0.796349  0.446044  1
  O  O18  1  0.853518  0.793700  0.060869  1
  O  O19  1  0.866872  0.528722  0.750660  1
