# generated using pymatgen
data_Ca(CrN)2
_symmetry_space_group_name_H-M   'P 1'
_cell_length_a   3.20521932
_cell_length_b   3.20451423
_cell_length_c   7.26293060
_cell_angle_alpha   90.00477270
_cell_angle_beta   89.99853646
_cell_angle_gamma   89.99995856
_symmetry_Int_Tables_number   1
_chemical_formula_structural   Ca(CrN)2
_chemical_formula_sum   'Ca1 Cr2 N2'
_cell_volume   74.59880134
_cell_formula_units_Z   1
loop_
 _symmetry_equiv_pos_site_id
 _symmetry_equiv_pos_as_xyz
  1  'x, y, z'
loop_
 _atom_site_type_symbol
 _atom_site_label
 _atom_site_symmetry_multiplicity
 _atom_site_fract_x
 _atom_site_fract_y
 _atom_site_fract_z
 _atom_site_occupancy
  Ca  Ca0  1  0.000007  0.000017  0.249593  1
  Cr  Cr1  1  0.500012  0.499936  0.904207  1
  Cr  Cr2  1  0.499979  0.500040  0.596074  1
  N  N3  1  0.499995  0.000029  0.479325  1
  N  N4  1  0.000009  0.499978  0.020801  1
