# generated using pymatgen
data_BaTi4AlO7
_symmetry_space_group_name_H-M   'P 1'
_cell_length_a   6.06336495
_cell_length_b   6.06378005
_cell_length_c   10.26562590
_cell_angle_alpha   90.00000000
_cell_angle_beta   90.00000000
_cell_angle_gamma   120.00264424
_symmetry_Int_Tables_number   1
_chemical_formula_structural   BaTi4AlO7
_chemical_formula_sum   'Ba2 Ti8 Al2 O14'
_cell_volume   326.85989831
_cell_formula_units_Z   2
loop_
 _symmetry_equiv_pos_site_id
 _symmetry_equiv_pos_as_xyz
  1  'x, y, z'
loop_
 _atom_site_type_symbol
 _atom_site_label
 _atom_site_symmetry_multiplicity
 _atom_site_fract_x
 _atom_site_fract_y
 _atom_site_fract_z
 _atom_site_occupancy
  Ba  Ba0  1  0.666663  0.333324  0.500646  1
  Ba  Ba1  1  0.333337  0.666676  0.000646  1
  Ti  Ti2  1  0.835213  0.164787  0.182159  1
  Ti  Ti3  1  0.670400  0.835200  0.682151  1
  Ti  Ti4  1  0.164806  0.329608  0.682149  1
  Ti  Ti5  1  0.835195  0.670392  0.182148  1
  Ti  Ti6  1  0.329599  0.164800  0.182150  1
  Ti  Ti7  1  0.164788  0.835213  0.682160  1
  Ti  Ti8  1  1.000006  1.000006  0.480765  1
  Ti  Ti9  1  -0.000006  -0.000006  0.980765  1
  Al  Al10  1  0.666663  0.333322  0.871566  1
  Al  Al11  1  0.333337  0.666678  0.371566  1
  O  O12  1  0.813572  0.186393  0.989978  1
  O  O13  1  0.627166  0.813602  0.489972  1
  O  O14  1  0.186417  0.372841  0.489972  1
  O  O15  1  0.813584  0.627159  0.989973  1
  O  O16  1  0.372833  0.186398  0.989973  1
  O  O17  1  0.186428  0.813607  0.489977  1
  O  O18  1  0.000010  0.999999  0.786635  1
  O  O19  1  0.999990  0.000001  0.286636  1
  O  O20  1  0.483236  0.516780  0.259334  1
  O  O21  1  0.966473  0.483230  0.759333  1
  O  O22  1  0.516761  0.033520  0.759335  1
  O  O23  1  0.483240  0.966480  0.259335  1
  O  O24  1  0.516766  0.483222  0.759334  1
  O  O25  1  0.033527  0.516772  0.259333  1
