# generated using pymatgen
data_YMn(WO4)2
_symmetry_space_group_name_H-M   'P 1'
_cell_length_a   5.23201628
_cell_length_b   5.85246196
_cell_length_c   10.13356162
_cell_angle_alpha   90.26663074
_cell_angle_beta   93.97096993
_cell_angle_gamma   88.97922294
_symmetry_Int_Tables_number   1
_chemical_formula_structural   YMn(WO4)2
_chemical_formula_sum   'Y2 Mn2 W4 O16'
_cell_volume   309.49557141
_cell_formula_units_Z   2
loop_
 _symmetry_equiv_pos_site_id
 _symmetry_equiv_pos_as_xyz
  1  'x, y, z'
loop_
 _atom_site_type_symbol
 _atom_site_label
 _atom_site_symmetry_multiplicity
 _atom_site_fract_x
 _atom_site_fract_y
 _atom_site_fract_z
 _atom_site_occupancy
  Y  Y0  1  0.247732  0.687551  0.239345  1
  Y  Y1  1  0.752267  0.312448  0.760655  1
  Mn  Mn2  1  0.748544  0.309098  0.239197  1
  Mn  Mn3  1  0.251456  0.690901  0.760803  1
  W  W4  1  0.248823  0.171347  0.495170  1
  W  W5  1  0.242553  0.168503  0.003814  1
  W  W6  1  0.751177  0.828653  0.504830  1
  W  W7  1  0.757447  0.831497  0.996186  1
  O  O8  1  0.393094  0.375726  0.139315  1
  O  O9  1  0.100022  0.366287  0.370632  1
  O  O10  1  0.606906  0.624273  0.860685  1
  O  O11  1  0.899977  0.633712  0.629368  1
  O  O12  1  0.456547  0.906982  0.606549  1
  O  O13  1  0.041996  0.916424  0.884735  1
  O  O14  1  0.543453  0.093017  0.393451  1
  O  O15  1  0.958004  0.083576  0.115265  1
  O  O16  1  0.877231  0.612165  0.124899  1
  O  O17  1  0.613816  0.624465  0.383225  1
  O  O18  1  0.122769  0.387836  0.875101  1
  O  O19  1  0.386184  0.375536  0.616775  1
  O  O20  1  0.439119  0.894681  0.098841  1
  O  O21  1  0.560881  0.105320  0.901159  1
  O  O22  1  0.054168  0.889125  0.403683  1
  O  O23  1  0.945832  0.110876  0.596317  1
