# generated using pymatgen
data_ZnFe(Si2O5)2
_symmetry_space_group_name_H-M   'P 1'
_cell_length_a   7.31921234
_cell_length_b   7.31925645
_cell_length_c   14.94821129
_cell_angle_alpha   90.00000000
_cell_angle_beta   90.00000000
_cell_angle_gamma   90.00030874
_symmetry_Int_Tables_number   1
_chemical_formula_structural   ZnFe(Si2O5)2
_chemical_formula_sum   'Zn4 Fe4 Si16 O40'
_cell_volume   800.79349899
_cell_formula_units_Z   4
loop_
 _symmetry_equiv_pos_site_id
 _symmetry_equiv_pos_as_xyz
  1  'x, y, z'
loop_
 _atom_site_type_symbol
 _atom_site_label
 _atom_site_symmetry_multiplicity
 _atom_site_fract_x
 _atom_site_fract_y
 _atom_site_fract_z
 _atom_site_occupancy
  Zn  Zn0  1  0.250000  0.750000  0.500001  1
  Zn  Zn1  1  0.750000  0.250000  0.499999  1
  Zn  Zn2  1  0.750000  0.250000  0.000001  1
  Zn  Zn3  1  0.250000  0.750000  0.999999  1
  Fe  Fe4  1  0.250000  0.250000  0.566088  1
  Fe  Fe5  1  0.750000  0.750000  0.933919  1
  Fe  Fe6  1  0.750000  0.750000  0.433912  1
  Fe  Fe7  1  0.250000  0.250000  0.066081  1
  Si  Si8  1  0.906378  0.488095  0.645464  1
  Si  Si9  1  0.593622  0.011905  0.645464  1
  Si  Si10  1  0.988093  0.406379  0.854538  1
  Si  Si11  1  0.488097  0.593621  0.645464  1
  Si  Si12  1  0.011903  0.906379  0.645464  1
  Si  Si13  1  0.093621  0.988095  0.854539  1
  Si  Si14  1  0.406379  0.511905  0.854539  1
  Si  Si15  1  0.511907  0.093621  0.854538  1
  Si  Si16  1  0.093622  0.511905  0.354536  1
  Si  Si17  1  0.406378  0.988095  0.354536  1
  Si  Si18  1  0.011907  0.593621  0.145461  1
  Si  Si19  1  0.511903  0.406379  0.354536  1
  Si  Si20  1  0.988097  0.093621  0.354536  1
  Si  Si21  1  0.906379  0.011905  0.145461  1
  Si  Si22  1  0.593621  0.488095  0.145461  1
  Si  Si23  1  0.488093  0.906379  0.145461  1
  O  O24  1  0.978926  0.334819  0.575382  1
  O  O25  1  0.521074  0.165181  0.575382  1
  O  O26  1  0.834815  0.478927  0.924619  1
  O  O27  1  0.334819  0.521073  0.575382  1
  O  O28  1  0.165181  0.978927  0.575382  1
  O  O29  1  0.021072  0.834819  0.924619  1
  O  O30  1  0.478928  0.665181  0.924619  1
  O  O31  1  0.665185  0.021073  0.924619  1
  O  O32  1  0.021074  0.665181  0.424618  1
  O  O33  1  0.478926  0.834819  0.424618  1
  O  O34  1  0.165185  0.521073  0.075381  1
  O  O35  1  0.665181  0.478927  0.424618  1
  O  O36  1  0.834819  0.021073  0.424618  1
  O  O37  1  0.978928  0.165181  0.075381  1
  O  O38  1  0.521072  0.334819  0.075381  1
  O  O39  1  0.003336  0.312495  0.373519  1
  O  O40  1  0.334815  0.978927  0.075381  1
  O  O41  1  0.503337  0.812495  0.626481  1
  O  O42  1  0.187503  0.496665  0.873517  1
  O  O43  1  0.687504  0.503333  0.626482  1
  O  O44  1  0.812496  0.996667  0.626482  1
  O  O45  1  0.003339  0.187506  0.873518  1
  O  O46  1  0.496660  0.312494  0.873518  1
  O  O47  1  0.312497  0.003334  0.873517  1
  O  O48  1  0.437591  0.937596  0.250000  1
  O  O49  1  0.562406  0.437596  0.250001  1
  O  O50  1  0.937594  0.062405  0.250001  1
  O  O51  1  0.062410  0.562404  0.250000  1
  O  O52  1  0.562409  0.062405  0.750000  1
  O  O53  1  0.437594  0.562404  0.749999  1
  O  O54  1  0.062407  0.937596  0.749999  1
  O  O55  1  0.937591  0.437596  0.750000  1
  O  O56  1  0.687503  0.996665  0.126483  1
  O  O57  1  0.503340  0.687506  0.126482  1
  O  O58  1  0.996660  0.812494  0.126482  1
  O  O59  1  0.187504  0.003332  0.373518  1
  O  O60  1  0.312496  0.496667  0.373518  1
  O  O61  1  0.812497  0.503335  0.126483  1
  O  O62  1  0.496663  0.187505  0.373519  1
  O  O63  1  0.996663  0.687505  0.626481  1
