# generated using pymatgen
data_BaMg(FeO2)4
_symmetry_space_group_name_H-M   'P 1'
_cell_length_a   5.41330757
_cell_length_b   5.41437612
_cell_length_c   7.35081581
_cell_angle_alpha   89.99201622
_cell_angle_beta   89.97951288
_cell_angle_gamma   119.96384396
_symmetry_Int_Tables_number   1
_chemical_formula_structural   BaMg(FeO2)4
_chemical_formula_sum   'Ba1 Mg1 Fe4 O8'
_cell_volume   186.65316209
_cell_formula_units_Z   1
loop_
 _symmetry_equiv_pos_site_id
 _symmetry_equiv_pos_as_xyz
  1  'x, y, z'
loop_
 _atom_site_type_symbol
 _atom_site_label
 _atom_site_symmetry_multiplicity
 _atom_site_fract_x
 _atom_site_fract_y
 _atom_site_fract_z
 _atom_site_occupancy
  Ba  Ba0  1  0.000000  -0.000000  0.000000  1
  Mg  Mg1  1  0.000000  -0.000000  0.500000  1
  Fe  Fe2  1  0.333501  0.666704  0.742772  1
  Fe  Fe3  1  0.666722  0.333472  0.742770  1
  Fe  Fe4  1  0.333278  0.666528  0.257230  1
  Fe  Fe5  1  0.666499  0.333296  0.257228  1
  O  O6  1  0.315873  0.315875  0.677001  1
  O  O7  1  0.684336  0.999933  0.676460  1
  O  O8  1  0.999939  0.684284  0.676604  1
  O  O9  1  0.684127  0.684125  0.322999  1
  O  O10  1  0.000061  0.315716  0.323396  1
  O  O11  1  0.315664  0.000067  0.323540  1
  O  O12  1  0.333133  0.667239  0.000003  1
  O  O13  1  0.666867  0.332761  0.999997  1
