# generated using pymatgen
data_Mn2ZnO4
_symmetry_space_group_name_H-M   'P 1'
_cell_length_a   6.02564723
_cell_length_b   6.15283819
_cell_length_c   6.15263595
_cell_angle_alpha   89.98496876
_cell_angle_beta   120.68593909
_cell_angle_gamma   120.71898290
_symmetry_Int_Tables_number   1
_chemical_formula_structural   Mn2ZnO4
_chemical_formula_sum   'Mn4 Zn2 O8'
_cell_volume   157.83241440
_cell_formula_units_Z   2
loop_
 _symmetry_equiv_pos_site_id
 _symmetry_equiv_pos_as_xyz
  1  'x, y, z'
loop_
 _atom_site_type_symbol
 _atom_site_label
 _atom_site_symmetry_multiplicity
 _atom_site_fract_x
 _atom_site_fract_y
 _atom_site_fract_z
 _atom_site_occupancy
  Mn  Mn0  1  0.499933  0.000010  0.499991  1
  Mn  Mn1  1  0.500087  0.500066  0.500047  1
  Mn  Mn2  1  0.000030  0.499941  0.000053  1
  Mn  Mn3  1  0.999967  0.499960  0.499989  1
  Zn  Zn4  1  0.249955  0.125366  0.875489  1
  Zn  Zn5  1  0.750022  0.874647  0.124471  1
  O  O6  1  0.030175  0.748589  0.237092  1
  O  O7  1  0.470176  0.762801  0.718352  1
  O  O8  1  0.469925  0.706756  0.250950  1
  O  O9  1  0.970343  0.718955  0.706988  1
  O  O10  1  0.530135  0.293276  0.749079  1
  O  O11  1  0.529740  0.237184  0.281587  1
  O  O12  1  0.029727  0.281070  0.293041  1
  O  O13  1  0.969782  0.251380  0.762870  1
