# generated using pymatgen
data_CaCrAsO5
_symmetry_space_group_name_H-M   'P 1'
_cell_length_a   7.56100826
_cell_length_b   5.99220669
_cell_length_c   8.91824506
_cell_angle_alpha   89.99892598
_cell_angle_beta   89.99371059
_cell_angle_gamma   89.99356413
_symmetry_Int_Tables_number   1
_chemical_formula_structural   CaCrAsO5
_chemical_formula_sum   'Ca4 Cr4 As4 O20'
_cell_volume   404.06003166
_cell_formula_units_Z   4
loop_
 _symmetry_equiv_pos_site_id
 _symmetry_equiv_pos_as_xyz
  1  'x, y, z'
loop_
 _atom_site_type_symbol
 _atom_site_label
 _atom_site_symmetry_multiplicity
 _atom_site_fract_x
 _atom_site_fract_y
 _atom_site_fract_z
 _atom_site_occupancy
  Ca  Ca0  1  0.898856  0.777206  0.080059  1
  Ca  Ca1  1  0.601220  0.222733  0.580049  1
  Ca  Ca2  1  0.398778  0.722858  0.919744  1
  Ca  Ca3  1  0.101278  0.277055  0.419990  1
  Cr  Cr4  1  0.994087  0.494916  0.754471  1
  Cr  Cr5  1  0.505965  0.505099  0.254179  1
  Cr  Cr6  1  0.494290  0.005012  0.245867  1
  Cr  Cr7  1  0.005625  0.994931  0.745744  1
  As  As8  1  0.642774  0.269122  0.941225  1
  As  As9  1  0.857123  0.730814  0.441337  1
  As  As10  1  0.143085  0.230885  0.058731  1
  As  As11  1  0.357134  0.769065  0.558873  1
  O  O12  1  0.829510  0.241851  0.823214  1
  O  O13  1  0.670476  0.758197  0.323181  1
  O  O14  1  0.329829  0.258123  0.176716  1
  O  O15  1  0.170279  0.741901  0.676897  1
  O  O16  1  0.478002  0.334962  0.819776  1
  O  O17  1  0.022059  0.665181  0.319755  1
  O  O18  1  0.977988  0.165242  0.180133  1
  O  O19  1  0.522019  0.834828  0.680168  1
  O  O20  1  0.616343  0.018130  0.034325  1
  O  O21  1  0.883692  0.981740  0.534241  1
  O  O22  1  0.116330  0.481758  0.965759  1
  O  O23  1  0.383833  0.518274  0.465646  1
  O  O24  1  0.655110  0.498038  0.059004  1
  O  O25  1  0.844947  0.502094  0.559232  1
  O  O26  1  0.155044  0.002110  0.940752  1
  O  O27  1  0.345041  0.997709  0.440927  1
  O  O28  1  0.873844  0.752291  0.833588  1
  O  O29  1  0.625700  0.247808  0.333454  1
  O  O30  1  0.374074  0.747810  0.166309  1
  O  O31  1  0.125665  0.252259  0.666651  1
