# generated using pymatgen
data_MnZnBiO5
_symmetry_space_group_name_H-M   'P 1'
_cell_length_a   5.32244342
_cell_length_b   10.75018288
_cell_length_c   15.26745742
_cell_angle_alpha   90.00000000
_cell_angle_beta   90.00000000
_cell_angle_gamma   90.00000000
_symmetry_Int_Tables_number   1
_chemical_formula_structural   MnZnBiO5
_chemical_formula_sum   'Mn8 Zn8 Bi8 O40'
_cell_volume   873.56177743
_cell_formula_units_Z   8
loop_
 _symmetry_equiv_pos_site_id
 _symmetry_equiv_pos_as_xyz
  1  'x, y, z'
loop_
 _atom_site_type_symbol
 _atom_site_label
 _atom_site_symmetry_multiplicity
 _atom_site_fract_x
 _atom_site_fract_y
 _atom_site_fract_z
 _atom_site_occupancy
  Mn  Mn0  1  0.966062  0.395509  0.593426  1
  Mn  Mn1  1  0.533938  0.895509  0.406574  1
  Mn  Mn2  1  0.033938  0.604491  0.406574  1
  Mn  Mn3  1  0.466062  0.104491  0.593426  1
  Mn  Mn4  1  0.033938  0.104491  0.093426  1
  Mn  Mn5  1  0.966062  0.895509  0.906574  1
  Mn  Mn6  1  0.533938  0.395509  0.093426  1
  Mn  Mn7  1  0.466062  0.604491  0.906574  1
  Zn  Zn8  1  0.479285  0.360011  0.458251  1
  Zn  Zn9  1  0.979285  0.139989  0.458251  1
  Zn  Zn10  1  0.979285  0.639989  0.041749  1
  Zn  Zn11  1  0.020715  0.360011  0.958251  1
  Zn  Zn12  1  0.520715  0.139989  0.958251  1
  Zn  Zn13  1  0.020715  0.860011  0.541749  1
  Zn  Zn14  1  0.520715  0.639989  0.541749  1
  Zn  Zn15  1  0.479285  0.860011  0.041749  1
  Bi  Bi16  1  0.990903  0.855863  0.225487  1
  Bi  Bi17  1  0.009097  0.144137  0.774513  1
  Bi  Bi18  1  0.509097  0.355863  0.774513  1
  Bi  Bi19  1  0.009097  0.644137  0.725487  1
  Bi  Bi20  1  0.490903  0.144137  0.274513  1
  Bi  Bi21  1  0.490903  0.644137  0.225487  1
  Bi  Bi22  1  0.509097  0.855863  0.725487  1
  Bi  Bi23  1  0.990903  0.355863  0.274513  1
  O  O24  1  0.919036  0.334700  0.697623  1
  O  O25  1  0.316246  0.044159  0.056205  1
  O  O26  1  0.183754  0.544159  0.943795  1
  O  O27  1  0.302988  0.781843  0.146052  1
  O  O28  1  0.197012  0.281843  0.853948  1
  O  O29  1  0.919036  0.834700  0.802377  1
  O  O30  1  0.197012  0.781843  0.646052  1
  O  O31  1  0.580964  0.834700  0.302377  1
  O  O32  1  0.316246  0.544159  0.443795  1
  O  O33  1  0.080964  0.665300  0.302377  1
  O  O34  1  0.580964  0.334700  0.197623  1
  O  O35  1  0.637854  0.197017  0.524447  1
  O  O36  1  0.816246  0.955841  0.443795  1
  O  O37  1  0.697012  0.718157  0.646052  1
  O  O38  1  0.165558  0.020553  0.880791  1
  O  O39  1  0.816246  0.455841  0.056205  1
  O  O40  1  0.080964  0.165300  0.197623  1
  O  O41  1  0.802988  0.218157  0.353948  1
  O  O42  1  0.137854  0.802983  0.975553  1
  O  O43  1  0.183754  0.044159  0.556205  1
  O  O44  1  0.362146  0.802983  0.475553  1
  O  O45  1  0.834442  0.979447  0.119209  1
  O  O46  1  0.697012  0.218157  0.853948  1
  O  O47  1  0.665558  0.979447  0.619209  1
  O  O48  1  0.362146  0.302983  0.024447  1
  O  O49  1  0.137854  0.302983  0.524447  1
  O  O50  1  0.683754  0.455841  0.556205  1
  O  O51  1  0.683754  0.955841  0.943795  1
  O  O52  1  0.665558  0.479447  0.880791  1
  O  O53  1  0.862146  0.697017  0.475553  1
  O  O54  1  0.862146  0.197017  0.024447  1
  O  O55  1  0.637854  0.697017  0.975553  1
  O  O56  1  0.834442  0.479447  0.380791  1
  O  O57  1  0.802988  0.718157  0.146052  1
  O  O58  1  0.302988  0.281843  0.353948  1
  O  O59  1  0.165558  0.520553  0.619209  1
  O  O60  1  0.334442  0.520553  0.119209  1
  O  O61  1  0.419036  0.165300  0.697623  1
  O  O62  1  0.334442  0.020553  0.380791  1
  O  O63  1  0.419036  0.665300  0.802377  1
