# generated using pymatgen
data_CaBi2(PO5)2
_symmetry_space_group_name_H-M   'P 1'
_cell_length_a   7.67089469
_cell_length_b   7.67089375
_cell_length_c   9.15834247
_cell_angle_alpha   103.39083360
_cell_angle_beta   103.39083220
_cell_angle_gamma   116.55138995
_symmetry_Int_Tables_number   1
_chemical_formula_structural   CaBi2(PO5)2
_chemical_formula_sum   'Ca2 Bi4 P4 O20'
_cell_volume   432.79175845
_cell_formula_units_Z   2
loop_
 _symmetry_equiv_pos_site_id
 _symmetry_equiv_pos_as_xyz
  1  'x, y, z'
loop_
 _atom_site_type_symbol
 _atom_site_label
 _atom_site_symmetry_multiplicity
 _atom_site_fract_x
 _atom_site_fract_y
 _atom_site_fract_z
 _atom_site_occupancy
  Ca  Ca0  1  0.504216  0.004216  0.500000  1
  Ca  Ca1  1  0.254216  0.254216  0.000000  1
  Bi  Bi2  1  0.877097  0.616030  0.257989  1
  Bi  Bi3  1  0.358041  0.619107  0.742011  1
  Bi  Bi4  1  0.869107  0.108041  0.242011  1
  Bi  Bi5  1  0.866030  0.627097  0.757989  1
  P  P6  1  0.046105  0.046516  0.603183  1
  P  P7  1  0.692922  0.193333  0.896817  1
  P  P8  1  0.443333  0.442922  0.396817  1
  P  P9  1  0.296516  0.796105  0.103183  1
  O  O10  1  0.552709  0.517599  0.280842  1
  O  O11  1  0.660650  0.677454  0.853501  1
  O  O12  1  0.301231  0.612617  0.990355  1
  O  O13  1  0.767599  0.302709  0.780842  1
  O  O14  1  0.222093  0.250341  0.275372  1
  O  O15  1  0.431208  0.624938  0.503764  1
  O  O16  1  0.057149  0.573952  0.646499  1
  O  O17  1  0.823952  0.807149  0.146499  1
  O  O18  1  0.927454  0.410650  0.353501  1
  O  O19  1  0.196721  0.724971  0.224628  1
  O  O20  1  0.236757  0.271868  0.719158  1
  O  O21  1  0.500341  0.972093  0.775372  1
  O  O22  1  0.974971  0.946721  0.724628  1
  O  O23  1  0.177446  0.871175  0.996236  1
  O  O24  1  0.121175  0.927446  0.496236  1
  O  O25  1  0.874938  0.181208  0.003764  1
  O  O26  1  0.862617  0.051231  0.490355  1
  O  O27  1  0.622262  0.310877  0.009645  1
  O  O28  1  0.521868  0.986757  0.219158  1
  O  O29  1  0.560877  0.372262  0.509645  1
