# generated using pymatgen
data_Mg(BiO2)2
_symmetry_space_group_name_H-M   'P 1'
_cell_length_a   6.74929905
_cell_length_b   6.74928020
_cell_length_c   6.98458001
_cell_angle_alpha   58.83986798
_cell_angle_beta   58.83998477
_cell_angle_gamma   59.39501214
_symmetry_Int_Tables_number   1
_chemical_formula_structural   Mg(BiO2)2
_chemical_formula_sum   'Mg2 Bi4 O8'
_cell_volume   219.96140386
_cell_formula_units_Z   2
loop_
 _symmetry_equiv_pos_site_id
 _symmetry_equiv_pos_as_xyz
  1  'x, y, z'
loop_
 _atom_site_type_symbol
 _atom_site_label
 _atom_site_symmetry_multiplicity
 _atom_site_fract_x
 _atom_site_fract_y
 _atom_site_fract_z
 _atom_site_occupancy
  Mg  Mg0  1  0.125000  0.625000  0.625000  1
  Mg  Mg1  1  0.625000  0.125000  0.625000  1
  Bi  Bi2  1  0.997115  0.997114  0.002885  1
  Bi  Bi3  1  0.252885  0.252886  0.247115  1
  Bi  Bi4  1  0.625000  0.625000  0.125000  1
  Bi  Bi5  1  0.625000  0.625000  0.625000  1
  O  O6  1  0.375648  0.375649  0.414543  1
  O  O7  1  0.363172  0.846285  0.395272  1
  O  O8  1  0.375648  0.375649  0.834161  1
  O  O9  1  0.846285  0.363172  0.395272  1
  O  O10  1  0.403715  0.886828  0.854728  1
  O  O11  1  0.886828  0.403715  0.854728  1
  O  O12  1  0.874352  0.874351  0.415839  1
  O  O13  1  0.874352  0.874351  0.835457  1
