# generated using pymatgen
data_YV(WO4)2
_symmetry_space_group_name_H-M   'P 1'
_cell_length_a   5.15481561
_cell_length_b   5.97076718
_cell_length_c   6.41074258
_cell_angle_alpha   106.31199195
_cell_angle_beta   121.58431888
_cell_angle_gamma   88.52960305
_symmetry_Int_Tables_number   1
_chemical_formula_structural   YV(WO4)2
_chemical_formula_sum   'Y1 V1 W2 O8'
_cell_volume   159.52792373
_cell_formula_units_Z   1
loop_
 _symmetry_equiv_pos_site_id
 _symmetry_equiv_pos_as_xyz
  1  'x, y, z'
loop_
 _atom_site_type_symbol
 _atom_site_label
 _atom_site_symmetry_multiplicity
 _atom_site_fract_x
 _atom_site_fract_y
 _atom_site_fract_z
 _atom_site_occupancy
  Y  Y0  1  0.622705  0.704599  0.098107  1
  V  V1  1  0.126839  0.229785  0.098694  1
  W  W2  1  0.869945  0.389431  0.586694  1
  W  W3  1  0.392623  0.062312  0.617335  1
  O  O4  1  0.120392  0.667612  0.821655  1
  O  O5  1  0.548600  0.482797  0.293069  1
  O  O6  1  0.172400  0.175847  0.786247  1
  O  O7  1  0.543594  0.063527  0.385203  1
  O  O8  1  0.685397  0.956115  0.882282  1
  O  O9  1  0.126135  0.792016  0.389976  1
  O  O10  1  0.082649  0.266594  0.405263  1
  O  O11  1  0.704723  0.387863  0.831570  1
