# generated using pymatgen
data_Ti13Al4Si2(SbO14)2
_symmetry_space_group_name_H-M   'P 1'
_cell_length_a   5.54094799
_cell_length_b   8.58700564
_cell_length_c   12.28932013
_cell_angle_alpha   87.46441939
_cell_angle_beta   76.96946016
_cell_angle_gamma   78.67626436
_symmetry_Int_Tables_number   1
_chemical_formula_structural   Ti13Al4Si2(SbO14)2
_chemical_formula_sum   'Ti13 Al4 Si2 Sb2 O28'
_cell_volume   558.58143301
_cell_formula_units_Z   1
loop_
 _symmetry_equiv_pos_site_id
 _symmetry_equiv_pos_as_xyz
  1  'x, y, z'
loop_
 _atom_site_type_symbol
 _atom_site_label
 _atom_site_symmetry_multiplicity
 _atom_site_fract_x
 _atom_site_fract_y
 _atom_site_fract_z
 _atom_site_occupancy
  Ti  Ti0  1  0.910913  0.623956  0.729457  1
  Ti  Ti1  1  0.661623  0.375206  0.157072  1
  Ti  Ti2  1  0.359628  0.375985  0.729447  1
  Ti  Ti3  1  0.089087  0.376044  0.270543  1
  Ti  Ti4  1  0.338377  0.624794  0.842928  1
  Ti  Ti5  1  0.285739  0.999996  0.428532  1
  Ti  Ti6  1  0.181235  0.624827  0.157073  1
  Ti  Ti7  1  -0.000000  -0.000000  -0.000000  1
  Ti  Ti8  1  0.428344  -0.000001  0.143464  1
  Ti  Ti9  1  0.818765  0.375173  0.842927  1
  Ti  Ti10  1  0.640372  0.624015  0.270553  1
  Ti  Ti11  1  0.571656  1.000001  0.856536  1
  Ti  Ti12  1  0.714261  0.000004  0.571469  1
  Al  Al13  1  0.078196  0.652079  0.440011  1
  Al  Al14  1  0.481879  0.347858  0.439994  1
  Al  Al15  1  0.921804  0.347921  0.559989  1
  Al  Al16  1  0.518121  0.652142  0.560006  1
  Si  Si17  1  0.220927  0.320543  0.999997  1
  Si  Si18  1  0.779073  0.679457  0.000003  1
  Sb  Sb19  1  0.862210  0.000059  0.275785  1
  Sb  Sb20  1  0.137790  0.999941  0.724215  1
  O  O21  1  0.713059  0.370575  0.316346  1
  O  O22  1  0.150751  0.390285  0.438065  1
  O  O23  1  0.919977  0.361685  0.999995  1
  O  O24  1  0.304156  0.124512  1.000001  1
  O  O25  1  0.849249  0.609715  0.561935  1
  O  O26  1  0.286941  0.629425  0.683654  1
  O  O27  1  0.982464  0.131053  0.548226  1
  O  O28  1  0.017536  0.868947  0.451774  1
  O  O29  1  0.695844  0.875488  -0.000001  1
  O  O30  1  0.133852  0.876921  0.141735  1
  O  O31  1  0.307113  0.380416  0.108927  1
  O  O32  1  0.970545  0.629431  0.316364  1
  O  O33  1  0.469270  0.868979  0.548253  1
  O  O34  1  0.724449  0.123112  0.141739  1
  O  O35  1  0.583931  0.619600  0.108940  1
  O  O36  1  0.080024  0.638315  0.000005  1
  O  O37  1  0.275551  0.876888  0.858261  1
  O  O38  1  0.866148  0.123079  0.858265  1
  O  O39  1  0.530730  0.131021  0.451747  1
  O  O40  1  0.192846  0.128943  0.278598  1
  O  O41  1  0.807154  0.871057  0.721402  1
  O  O42  1  0.416069  0.380400  0.891060  1
  O  O43  1  0.471360  0.128897  0.721387  1
  O  O44  1  0.588771  0.390256  0.561928  1
  O  O45  1  0.692887  0.619584  0.891073  1
  O  O46  1  0.528640  0.871103  0.278613  1
  O  O47  1  0.029455  0.370569  0.683636  1
  O  O48  1  0.411229  0.609744  0.438072  1
