# generated using pymatgen
data_ZnWO3
_symmetry_space_group_name_H-M   'P 1'
_cell_length_a   4.00658714
_cell_length_b   5.60258328
_cell_length_c   4.07208646
_cell_angle_alpha   90.07041028
_cell_angle_beta   89.96297023
_cell_angle_gamma   134.62649945
_symmetry_Int_Tables_number   1
_chemical_formula_structural   ZnWO3
_chemical_formula_sum   'Zn1 W1 O3'
_cell_volume   65.05448864
_cell_formula_units_Z   1
loop_
 _symmetry_equiv_pos_site_id
 _symmetry_equiv_pos_as_xyz
  1  'x, y, z'
loop_
 _atom_site_type_symbol
 _atom_site_label
 _atom_site_symmetry_multiplicity
 _atom_site_fract_x
 _atom_site_fract_y
 _atom_site_fract_z
 _atom_site_occupancy
  Zn  Zn0  1  0.012760  0.558230  0.503116  1
  W  W1  1  0.999066  0.966057  0.001836  1
  O  O2  1  0.995858  0.927049  0.501461  1
  O  O3  1  0.521034  0.454333  0.000368  1
  O  O4  1  0.471282  0.927816  0.000513  1
