# generated using pymatgen
data_Ca(BiO2)4
_symmetry_space_group_name_H-M   'P 1'
_cell_length_a   3.42325516
_cell_length_b   8.80244134
_cell_length_c   7.93119851
_cell_angle_alpha   73.68788876
_cell_angle_beta   77.54178051
_cell_angle_gamma   78.78015389
_symmetry_Int_Tables_number   1
_chemical_formula_structural   Ca(BiO2)4
_chemical_formula_sum   'Ca1 Bi4 O8'
_cell_volume   221.66882763
_cell_formula_units_Z   1
loop_
 _symmetry_equiv_pos_site_id
 _symmetry_equiv_pos_as_xyz
  1  'x, y, z'
loop_
 _atom_site_type_symbol
 _atom_site_label
 _atom_site_symmetry_multiplicity
 _atom_site_fract_x
 _atom_site_fract_y
 _atom_site_fract_z
 _atom_site_occupancy
  Ca  Ca0  1  0.405010  0.119021  0.071025  1
  Bi  Bi1  1  0.609040  0.136656  0.645474  1
  Bi  Bi2  1  0.129243  0.496301  0.245371  1
  Bi  Bi3  1  0.843621  0.488046  0.824632  1
  Bi  Bi4  1  0.370958  0.816897  0.441343  1
  O  O5  1  0.907132  0.625059  0.560874  1
  O  O6  1  0.440643  0.339616  0.779248  1
  O  O7  1  0.537370  0.667774  0.257598  1
  O  O8  1  0.124570  0.275809  0.475115  1
  O  O9  1  0.027847  0.085318  0.859309  1
  O  O10  1  0.780924  0.345601  0.092961  1
  O  O11  1  0.878506  0.964355  0.278570  1
  O  O12  1  0.242619  0.615652  0.899127  1
