# generated using pymatgen
data_VS2
_symmetry_space_group_name_H-M   'P 1'
_cell_length_a   5.41821485
_cell_length_b   5.41821345
_cell_length_c   6.29262183
_cell_angle_alpha   115.50065634
_cell_angle_beta   115.50064215
_cell_angle_gamma   89.99998928
_symmetry_Int_Tables_number   1
_chemical_formula_structural   VS2
_chemical_formula_sum   'V2 S4'
_cell_volume   146.54594770
_cell_formula_units_Z   2
loop_
 _symmetry_equiv_pos_site_id
 _symmetry_equiv_pos_as_xyz
  1  'x, y, z'
loop_
 _atom_site_type_symbol
 _atom_site_label
 _atom_site_symmetry_multiplicity
 _atom_site_fract_x
 _atom_site_fract_y
 _atom_site_fract_z
 _atom_site_occupancy
  V  V0  1  0.250000  0.750000  0.500000  1
  V  V1  1  0.000000  0.000000  0.000000  1
  S  S2  1  0.897439  0.875000  0.250000  1
  S  S3  1  0.625000  0.102561  0.750000  1
  S  S4  1  0.352561  0.375000  0.250000  1
  S  S5  1  0.125000  0.647439  0.750000  1
