# generated using pymatgen
data_Ca(NiO2)2
_symmetry_space_group_name_H-M   'P 1'
_cell_length_a   3.02828820
_cell_length_b   8.99111699
_cell_length_c   10.56571537
_cell_angle_alpha   90.00711442
_cell_angle_beta   89.99998771
_cell_angle_gamma   90.00005078
_symmetry_Int_Tables_number   1
_chemical_formula_structural   Ca(NiO2)2
_chemical_formula_sum   'Ca4 Ni8 O16'
_cell_volume   287.68005726
_cell_formula_units_Z   4
loop_
 _symmetry_equiv_pos_site_id
 _symmetry_equiv_pos_as_xyz
  1  'x, y, z'
loop_
 _atom_site_type_symbol
 _atom_site_label
 _atom_site_symmetry_multiplicity
 _atom_site_fract_x
 _atom_site_fract_y
 _atom_site_fract_z
 _atom_site_occupancy
  Ca  Ca0  1  0.749999  0.242585  0.340011  1
  Ca  Ca1  1  0.249999  0.757410  0.659967  1
  Ca  Ca2  1  0.750001  0.742644  0.160085  1
  Ca  Ca3  1  0.250000  0.257348  0.839944  1
  Ni  Ni4  1  0.250001  0.416381  0.100024  1
  Ni  Ni5  1  0.749997  0.083596  0.600091  1
  Ni  Ni6  1  0.250002  0.916385  0.399935  1
  Ni  Ni7  1  0.750001  0.583681  0.899945  1
  Ni  Ni8  1  0.749999  0.561313  0.387820  1
  Ni  Ni9  1  0.249997  0.438668  0.612201  1
  Ni  Ni10  1  0.749998  0.061363  0.112176  1
  Ni  Ni11  1  0.249999  0.938614  0.887831  1
  O  O12  1  0.249999  0.918764  0.074966  1
  O  O13  1  0.749998  0.081202  0.925004  1
  O  O14  1  0.249999  0.418744  0.424998  1
  O  O15  1  0.750000  0.581212  0.575007  1
  O  O16  1  0.250000  0.026529  0.713258  1
  O  O17  1  0.749999  0.973402  0.286788  1
  O  O18  1  0.250001  0.526655  0.786837  1
  O  O19  1  0.750000  0.473427  0.213181  1
  O  O20  1  0.250001  0.616198  0.023064  1
  O  O21  1  0.750000  0.383910  0.976834  1
  O  O22  1  0.250000  0.116104  0.476882  1
  O  O23  1  0.749999  0.883860  0.523110  1
  O  O24  1  0.750000  0.793205  0.840109  1
  O  O25  1  0.249999  0.206754  0.159902  1
  O  O26  1  0.249999  0.706777  0.340080  1
  O  O27  1  0.750000  0.293267  0.659950  1
