# generated using pymatgen
data_BaMgWF7
_symmetry_space_group_name_H-M   'P 1'
_cell_length_a   5.72248134
_cell_length_b   9.93760521
_cell_length_c   10.22845372
_cell_angle_alpha   90.00000000
_cell_angle_beta   90.00000000
_cell_angle_gamma   92.57271483
_symmetry_Int_Tables_number   1
_chemical_formula_structural   BaMgWF7
_chemical_formula_sum   'Ba4 Mg4 W4 F28'
_cell_volume   581.08296657
_cell_formula_units_Z   4
loop_
 _symmetry_equiv_pos_site_id
 _symmetry_equiv_pos_as_xyz
  1  'x, y, z'
loop_
 _atom_site_type_symbol
 _atom_site_label
 _atom_site_symmetry_multiplicity
 _atom_site_fract_x
 _atom_site_fract_y
 _atom_site_fract_z
 _atom_site_occupancy
  Ba  Ba0  1  0.267397  0.496858  0.327581  1
  Ba  Ba1  1  0.732603  0.003142  0.827581  1
  Ba  Ba2  1  0.732603  0.503142  0.672419  1
  Ba  Ba3  1  0.267397  0.996858  0.172419  1
  Mg  Mg4  1  0.687063  0.809981  0.392774  1
  Mg  Mg5  1  0.312937  0.690019  0.892774  1
  Mg  Mg6  1  0.687063  0.309981  0.107226  1
  Mg  Mg7  1  0.312937  0.190019  0.607226  1
  W  W8  1  0.193627  0.814848  0.611802  1
  W  W9  1  0.806373  0.185152  0.388198  1
  W  W10  1  0.193627  0.314848  0.888198  1
  W  W11  1  0.806373  0.685152  0.111802  1
  F  F12  1  0.133686  0.123448  0.454100  1
  F  F13  1  0.374177  0.375645  0.059528  1
  F  F14  1  0.488792  0.749753  0.718343  1
  F  F15  1  0.511208  0.250247  0.281657  1
  F  F16  1  0.896614  0.377417  0.458346  1
  F  F17  1  0.263812  0.508382  0.803046  1
  F  F18  1  0.026305  0.749442  0.787951  1
  F  F19  1  0.103386  0.122583  0.958346  1
  F  F20  1  0.374177  0.875645  0.440472  1
  F  F21  1  0.511208  0.750247  0.218343  1
  F  F22  1  0.133686  0.623448  0.045900  1
  F  F23  1  0.866314  0.876552  0.545900  1
  F  F24  1  0.973695  0.750558  0.287951  1
  F  F25  1  0.395320  0.868827  0.958568  1
  F  F26  1  0.103386  0.622583  0.541654  1
  F  F27  1  0.896614  0.877417  0.041654  1
  F  F28  1  0.973695  0.250558  0.212049  1
  F  F29  1  0.866314  0.376553  0.954100  1
  F  F30  1  0.604680  0.631173  0.458568  1
  F  F31  1  0.625823  0.624355  0.940472  1
  F  F32  1  0.604680  0.131173  0.041432  1
  F  F33  1  0.026305  0.249442  0.712049  1
  F  F34  1  0.395320  0.368826  0.541432  1
  F  F35  1  0.736188  0.991618  0.303046  1
  F  F36  1  0.736188  0.491618  0.196954  1
  F  F37  1  0.263812  0.008382  0.696954  1
  F  F38  1  0.625823  0.124355  0.559528  1
  F  F39  1  0.488792  0.249753  0.781657  1
