# generated using pymatgen
data_Ca(FeO2)2
_symmetry_space_group_name_H-M   'P 1'
_cell_length_a   6.26114918
_cell_length_b   6.26928339
_cell_length_c   19.00816938
_cell_angle_alpha   59.84415807
_cell_angle_beta   60.29602975
_cell_angle_gamma   60.19164004
_symmetry_Int_Tables_number   1
_chemical_formula_structural   Ca(FeO2)2
_chemical_formula_sum   'Ca6 Fe12 O24'
_cell_volume   528.89506601
_cell_formula_units_Z   6
loop_
 _symmetry_equiv_pos_site_id
 _symmetry_equiv_pos_as_xyz
  1  'x, y, z'
loop_
 _atom_site_type_symbol
 _atom_site_label
 _atom_site_symmetry_multiplicity
 _atom_site_fract_x
 _atom_site_fract_y
 _atom_site_fract_z
 _atom_site_occupancy
  Ca  Ca0  1  0.121248  0.119914  0.045133  1
  Ca  Ca1  1  0.116503  0.126123  0.380063  1
  Ca  Ca2  1  0.494611  0.494074  0.337593  1
  Ca  Ca3  1  0.113793  0.118505  0.718250  1
  Ca  Ca4  1  0.504478  0.503176  0.995910  1
  Ca  Ca5  1  0.880581  0.877735  0.621213  1
  Fe  Fe6  1  0.497010  0.494879  0.164818  1
  Fe  Fe7  1  0.494935  0.011402  0.165570  1
  Fe  Fe8  1  0.499971  0.502983  0.500374  1
  Fe  Fe9  1  0.012214  0.494059  0.165031  1
  Fe  Fe10  1  0.477936  0.012228  0.511013  1
  Fe  Fe11  1  0.505454  0.502596  0.662132  1
  Fe  Fe12  1  0.884612  0.877742  0.283128  1
  Fe  Fe13  1  0.499516  0.501421  0.828699  1
  Fe  Fe14  1  0.000562  0.498064  0.502798  1
  Fe  Fe15  1  0.499499  0.016082  0.828723  1
  Fe  Fe16  1  0.014628  0.500934  0.829048  1
  Fe  Fe17  1  0.881782  0.880707  0.952290  1
  O  O18  1  0.252744  0.252471  0.097855  1
  O  O19  1  0.264697  0.260195  0.235969  1
  O  O20  1  0.255749  0.696952  0.096991  1
  O  O21  1  0.699296  0.253626  0.097651  1
  O  O22  1  0.240407  0.237844  0.442092  1
  O  O23  1  0.269799  0.753284  0.238421  1
  O  O24  1  0.252787  0.264024  0.576834  1
  O  O25  1  0.755702  0.264748  0.240245  1
  O  O26  1  0.749984  0.748454  0.083586  1
  O  O27  1  0.242007  0.701969  0.438105  1
  O  O28  1  0.694839  0.240268  0.440618  1
  O  O29  1  0.759051  0.753964  0.237907  1
  O  O30  1  0.270876  0.275307  0.754347  1
  O  O31  1  0.307877  0.729137  0.578190  1
  O  O32  1  0.727697  0.307475  0.578959  1
  O  O33  1  0.269773  0.266284  0.898750  1
  O  O34  1  0.765415  0.730307  0.410602  1
  O  O35  1  0.273808  0.695363  0.753277  1
  O  O36  1  0.692061  0.276533  0.753794  1
  O  O37  1  0.729608  0.730527  0.578052  1
  O  O38  1  0.260293  0.767634  0.901968  1
  O  O39  1  0.767839  0.260407  0.902053  1
  O  O40  1  0.729612  0.732866  0.770284  1
  O  O41  1  0.768745  0.767734  0.901664  1
