# generated using pymatgen
data_ZnCu4(SnSe4)2
_symmetry_space_group_name_H-M   'P 1'
_cell_length_a   5.70786135
_cell_length_b   11.40275941
_cell_length_c   6.96068716
_cell_angle_alpha   114.07817507
_cell_angle_beta   114.10851350
_cell_angle_gamma   90.03855222
_symmetry_Int_Tables_number   1
_chemical_formula_structural   ZnCu4(SnSe4)2
_chemical_formula_sum   'Zn1 Cu4 Sn2 Se8'
_cell_volume   369.85315325
_cell_formula_units_Z   1
loop_
 _symmetry_equiv_pos_site_id
 _symmetry_equiv_pos_as_xyz
  1  'x, y, z'
loop_
 _atom_site_type_symbol
 _atom_site_label
 _atom_site_symmetry_multiplicity
 _atom_site_fract_x
 _atom_site_fract_y
 _atom_site_fract_z
 _atom_site_occupancy
  Zn  Zn0  1  0.998992  0.500020  0.998479  1
  Cu  Cu1  1  0.235555  0.370427  0.492068  1
  Cu  Cu2  1  0.261920  0.880916  0.505945  1
  Cu  Cu3  1  0.750176  0.120853  0.496064  1
  Cu  Cu4  1  0.742094  0.626265  0.499729  1
  Sn  Sn5  1  0.497025  0.241992  0.998849  1
  Sn  Sn6  1  0.500099  0.756284  0.998796  1
  Se  Se7  1  0.621203  0.310813  0.729023  1
  Se  Se8  1  0.634160  0.817035  0.734769  1
  Se  Se9  1  0.372748  0.445408  0.267976  1
  Se  Se10  1  0.363433  0.949183  0.259978  1
  Se  Se11  1  0.893696  0.179988  0.261635  1
  Se  Se12  1  0.894891  0.689642  0.269791  1
  Se  Se13  1  0.099226  0.049072  0.733223  1
  Se  Se14  1  0.104494  0.553089  0.728312  1
