# generated using pymatgen
data_BiTeO5
_symmetry_space_group_name_H-M   'P 1'
_cell_length_a   5.86393601
_cell_length_b   9.16572710
_cell_length_c   11.26543675
_cell_angle_alpha   90.00000000
_cell_angle_beta   90.00000000
_cell_angle_gamma   110.35926663
_symmetry_Int_Tables_number   1
_chemical_formula_structural   BiTeO5
_chemical_formula_sum   'Bi4 Te4 O20'
_cell_volume   567.66112012
_cell_formula_units_Z   4
loop_
 _symmetry_equiv_pos_site_id
 _symmetry_equiv_pos_as_xyz
  1  'x, y, z'
loop_
 _atom_site_type_symbol
 _atom_site_label
 _atom_site_symmetry_multiplicity
 _atom_site_fract_x
 _atom_site_fract_y
 _atom_site_fract_z
 _atom_site_occupancy
  Bi  Bi0  1  0.154109  0.145285  0.083580  1
  Bi  Bi1  1  0.845891  0.854715  0.916420  1
  Bi  Bi2  1  0.654109  0.645285  0.416420  1
  Bi  Bi3  1  0.345891  0.354715  0.583580  1
  Te  Te4  1  0.788566  0.947088  0.645203  1
  Te  Te5  1  0.211434  0.052912  0.354797  1
  Te  Te6  1  0.711434  0.552912  0.145203  1
  Te  Te7  1  0.288566  0.447088  0.854797  1
  O  O8  1  0.526728  0.362716  0.079370  1
  O  O9  1  0.066123  0.332569  0.967607  1
  O  O10  1  0.534640  0.665582  0.214202  1
  O  O11  1  0.708493  0.512556  0.560674  1
  O  O12  1  0.856790  0.526612  0.287372  1
  O  O13  1  0.356790  0.026612  0.212628  1
  O  O14  1  0.566123  0.832569  0.532393  1
  O  O15  1  0.433877  0.167431  0.467607  1
  O  O16  1  0.291507  0.487444  0.439326  1
  O  O17  1  0.973272  0.137284  0.579370  1
  O  O18  1  0.143210  0.473388  0.712628  1
  O  O19  1  0.473272  0.637284  0.920630  1
  O  O20  1  0.026728  0.862716  0.420630  1
  O  O21  1  0.643210  0.973388  0.787372  1
  O  O22  1  0.791507  0.987444  0.060674  1
  O  O23  1  0.208493  0.012556  0.939326  1
  O  O24  1  0.465360  0.334418  0.785798  1
  O  O25  1  0.933877  0.667431  0.032393  1
  O  O26  1  0.965360  0.834418  0.714202  1
  O  O27  1  0.034640  0.165582  0.285798  1
