# generated using pymatgen
data_Zn2Sn3O8
_symmetry_space_group_name_H-M   'P 1'
_cell_length_a   5.46100632
_cell_length_b   6.21695692
_cell_length_c   5.93764768
_cell_angle_alpha   121.56867771
_cell_angle_beta   99.21740820
_cell_angle_gamma   89.99999669
_symmetry_Int_Tables_number   1
_chemical_formula_structural   Zn2Sn3O8
_chemical_formula_sum   'Zn2 Sn3 O8'
_cell_volume   168.69308997
_cell_formula_units_Z   1
loop_
 _symmetry_equiv_pos_site_id
 _symmetry_equiv_pos_as_xyz
  1  'x, y, z'
loop_
 _atom_site_type_symbol
 _atom_site_label
 _atom_site_symmetry_multiplicity
 _atom_site_fract_x
 _atom_site_fract_y
 _atom_site_fract_z
 _atom_site_occupancy
  Zn  Zn0  1  0.583533  0.702334  0.404666  1
  Zn  Zn1  1  0.416466  0.297667  0.595334  1
  Sn  Sn2  1  0.500000  0.999999  0.000000  1
  Sn  Sn3  1  0.000000  0.742784  -0.000000  1
  Sn  Sn4  1  0.000000  0.257216  1.000000  1
  O  O5  1  0.122792  0.390443  0.780886  1
  O  O6  1  0.877207  0.609556  0.219114  1
  O  O7  1  0.134389  0.896027  0.792054  1
  O  O8  1  0.865611  0.103972  0.207946  1
  O  O9  1  0.365206  0.353156  0.248037  1
  O  O10  1  0.365206  0.894881  0.248037  1
  O  O11  1  0.634794  0.105118  0.751963  1
  O  O12  1  0.634794  0.646844  0.751963  1
