# generated using pymatgen
data_BiF5
_symmetry_space_group_name_H-M   'P 1'
_cell_length_a   3.82054549
_cell_length_b   6.10243899
_cell_length_c   8.93096694
_cell_angle_alpha   90.00000000
_cell_angle_beta   90.00000000
_cell_angle_gamma   108.24218226
_symmetry_Int_Tables_number   1
_chemical_formula_structural   BiF5
_chemical_formula_sum   'Bi2 F10'
_cell_volume   197.75746085
_cell_formula_units_Z   2
loop_
 _symmetry_equiv_pos_site_id
 _symmetry_equiv_pos_as_xyz
  1  'x, y, z'
loop_
 _atom_site_type_symbol
 _atom_site_label
 _atom_site_symmetry_multiplicity
 _atom_site_fract_x
 _atom_site_fract_y
 _atom_site_fract_z
 _atom_site_occupancy
  Bi  Bi0  1  0.500000  0.000000  0.500000  1
  Bi  Bi1  1  0.500000  0.000000  -0.000000  1
  F  F2  1  0.491909  0.983817  0.250000  1
  F  F3  1  0.508091  0.016183  0.750000  1
  F  F4  1  0.073218  0.146436  0.592021  1
  F  F5  1  0.926782  0.853564  0.407979  1
  F  F6  1  0.332852  0.665704  0.935830  1
  F  F7  1  0.667148  0.334296  0.064170  1
  F  F8  1  0.667148  0.334296  0.435830  1
  F  F9  1  0.332852  0.665704  0.564170  1
  F  F10  1  0.073218  0.146436  0.907979  1
  F  F11  1  0.926782  0.853564  0.092021  1
