# generated using pymatgen
data_Mg(FeS2)2
_symmetry_space_group_name_H-M   'P 1'
_cell_length_a   6.96795190
_cell_length_b   6.97270116
_cell_length_c   6.99002221
_cell_angle_alpha   59.94927564
_cell_angle_beta   59.89785850
_cell_angle_gamma   59.85665238
_symmetry_Int_Tables_number   1
_chemical_formula_structural   Mg(FeS2)2
_chemical_formula_sum   'Mg2 Fe4 S8'
_cell_volume   239.60466192
_cell_formula_units_Z   2
loop_
 _symmetry_equiv_pos_site_id
 _symmetry_equiv_pos_as_xyz
  1  'x, y, z'
loop_
 _atom_site_type_symbol
 _atom_site_label
 _atom_site_symmetry_multiplicity
 _atom_site_fract_x
 _atom_site_fract_y
 _atom_site_fract_z
 _atom_site_occupancy
  Mg  Mg0  1  0.873251  0.874792  0.876193  1
  Mg  Mg1  1  0.126679  0.125775  0.123774  1
  Fe  Fe2  1  0.500027  0.500115  0.499729  1
  Fe  Fe3  1  0.499814  0.500314  -0.000011  1
  Fe  Fe4  1  0.999864  0.500167  0.500091  1
  Fe  Fe5  1  0.500345  0.999272  0.499961  1
  S  S6  1  0.733780  0.732934  0.732468  1
  S  S7  1  0.266501  0.266911  0.698798  1
  S  S8  1  0.265916  0.699228  0.267592  1
  S  S9  1  0.699171  0.266365  0.266992  1
  S  S10  1  0.733706  0.301248  0.732442  1
  S  S11  1  0.300555  0.733255  0.733206  1
  S  S12  1  0.266427  0.266981  0.268004  1
  S  S13  1  0.733969  0.732639  0.300764  1
