# generated using pymatgen
data_CaMn4O8
_symmetry_space_group_name_H-M   'P 1'
_cell_length_a   3.07465473
_cell_length_b   7.11981192
_cell_length_c   7.12600907
_cell_angle_alpha   83.31224069
_cell_angle_beta   77.54284725
_cell_angle_gamma   77.51622781
_symmetry_Int_Tables_number   1
_chemical_formula_structural   CaMn4O8
_chemical_formula_sum   'Ca1 Mn4 O8'
_cell_volume   148.32190287
_cell_formula_units_Z   1
loop_
 _symmetry_equiv_pos_site_id
 _symmetry_equiv_pos_as_xyz
  1  'x, y, z'
loop_
 _atom_site_type_symbol
 _atom_site_label
 _atom_site_symmetry_multiplicity
 _atom_site_fract_x
 _atom_site_fract_y
 _atom_site_fract_z
 _atom_site_occupancy
  Ca  Ca0  1  0.407732  0.076686  0.107897  1
  Mn  Mn1  1  0.635183  0.173044  0.556662  1
  Mn  Mn2  1  0.143384  0.498253  0.215318  1
  Mn  Mn3  1  0.829250  0.496869  0.844772  1
  Mn  Mn4  1  0.343271  0.807829  0.505766  1
  O  O5  1  0.845754  0.679601  0.629059  1
  O  O6  1  0.448722  0.341933  0.760771  1
  O  O7  1  0.529552  0.645187  0.296128  1
  O  O8  1  0.140156  0.298086  0.422002  1
  O  O9  1  0.148265  0.022465  0.680758  1
  O  O10  1  0.790485  0.328987  0.089963  1
  O  O11  1  0.834234  0.972831  0.358818  1
  O  O12  1  0.201494  0.634338  0.962730  1
