# generated using pymatgen
data_ZnCoF5
_symmetry_space_group_name_H-M   'P 1'
_cell_length_a   5.32057376
_cell_length_b   5.30144948
_cell_length_c   7.48752569
_cell_angle_alpha   97.70512871
_cell_angle_beta   110.68296730
_cell_angle_gamma   108.25464775
_symmetry_Int_Tables_number   1
_chemical_formula_structural   ZnCoF5
_chemical_formula_sum   'Zn2 Co2 F10'
_cell_volume   180.38518440
_cell_formula_units_Z   2
loop_
 _symmetry_equiv_pos_site_id
 _symmetry_equiv_pos_as_xyz
  1  'x, y, z'
loop_
 _atom_site_type_symbol
 _atom_site_label
 _atom_site_symmetry_multiplicity
 _atom_site_fract_x
 _atom_site_fract_y
 _atom_site_fract_z
 _atom_site_occupancy
  Zn  Zn0  1  0.282112  0.529456  0.754579  1
  Zn  Zn1  1  0.725165  0.470883  0.256489  1
  Co  Co2  1  0.995530  -0.001701  0.000567  1
  Co  Co3  1  0.500003  0.002096  0.500702  1
  F  F4  1  0.373842  0.126600  0.250010  1
  F  F5  1  0.621860  0.877241  0.752084  1
  F  F6  1  0.585150  0.735654  0.377041  1
  F  F7  1  0.858424  0.211953  0.126035  1
  F  F8  1  0.750408  0.676587  0.047510  1
  F  F9  1  0.136492  0.714321  0.457477  1
  F  F10  1  0.231038  0.319603  0.951830  1
  F  F11  1  0.867799  0.293032  0.545894  1
  F  F12  1  0.133451  0.785615  0.874195  1
  F  F13  1  0.420340  0.272314  0.626728  1
