# generated using pymatgen
data_Ba2MgCuSn2F14
_symmetry_space_group_name_H-M   'P 1'
_cell_length_a   5.38862684
_cell_length_b   7.70279071
_cell_length_c   15.49843878
_cell_angle_alpha   91.55000841
_cell_angle_beta   90.39727885
_cell_angle_gamma   109.78285324
_symmetry_Int_Tables_number   1
_chemical_formula_structural   Ba2MgCuSn2F14
_chemical_formula_sum   'Ba4 Mg2 Cu2 Sn4 F28'
_cell_volume   605.02461841
_cell_formula_units_Z   2
loop_
 _symmetry_equiv_pos_site_id
 _symmetry_equiv_pos_as_xyz
  1  'x, y, z'
loop_
 _atom_site_type_symbol
 _atom_site_label
 _atom_site_symmetry_multiplicity
 _atom_site_fract_x
 _atom_site_fract_y
 _atom_site_fract_z
 _atom_site_occupancy
  Ba  Ba0  1  0.081328  0.350318  0.622584  1
  Ba  Ba1  1  0.270019  0.351386  0.127653  1
  Ba  Ba2  1  0.911808  0.633485  0.372030  1
  Ba  Ba3  1  0.721042  0.635306  0.873023  1
  Mg  Mg4  1  0.462529  0.010715  0.752926  1
  Mg  Mg5  1  0.552630  0.012721  0.253639  1
  Cu  Cu6  1  0.503814  0.005841  0.999181  1
  Cu  Cu7  1  0.506406  0.006551  0.496757  1
  Sn  Sn8  1  0.086624  0.230126  0.875223  1
  Sn  Sn9  1  0.908460  0.764858  0.125384  1
  Sn  Sn10  1  0.153335  0.226976  0.376748  1
  Sn  Sn11  1  0.857085  0.764614  0.624931  1
  F  F12  1  0.830536  0.962204  0.323518  1
  F  F13  1  0.864035  0.307702  0.459453  1
  F  F14  1  0.126265  0.704900  0.547784  1
  F  F15  1  0.632400  0.498529  0.603281  1
  F  F16  1  0.625960  0.064656  0.631416  1
  F  F17  1  0.564266  0.928500  0.870161  1
  F  F18  1  0.443862  0.306003  0.956137  1
  F  F19  1  0.887705  0.008747  0.162922  1
  F  F20  1  0.366351  0.338747  0.773010  1
  F  F21  1  0.376845  0.523016  0.397146  1
  F  F22  1  0.790396  0.235618  0.778052  1
  F  F23  1  0.145785  0.520123  0.895196  1
  F  F24  1  0.455050  0.235895  0.272546  1
  F  F25  1  0.193914  0.771143  0.212311  1
  F  F26  1  0.436697  0.057247  0.127544  1
  F  F27  1  0.638658  0.658011  0.217849  1
  F  F28  1  0.097448  0.832962  0.013088  1
  F  F29  1  0.121847  0.007707  0.665299  1
  F  F30  1  0.892171  0.164092  0.000351  1
  F  F31  1  0.736506  0.833517  0.513979  1
  F  F32  1  0.580319  0.703818  0.046762  1
  F  F33  1  0.579134  0.771640  0.712311  1
  F  F34  1  0.979668  0.340888  0.270380  1
  F  F35  1  0.272373  0.163965  0.508829  1
  F  F36  1  0.359882  0.930043  0.369519  1
  F  F37  1  0.127499  0.970182  0.826124  1
  F  F38  1  0.016863  0.659495  0.719129  1
  F  F39  1  0.866735  0.498551  0.103011  1
