# generated using pymatgen
data_V4ZnO8
_symmetry_space_group_name_H-M   'P 1'
_cell_length_a   2.87332338
_cell_length_b   7.33248739
_cell_length_c   7.50916917
_cell_angle_alpha   84.43339900
_cell_angle_beta   78.97794314
_cell_angle_gamma   78.68692309
_symmetry_Int_Tables_number   1
_chemical_formula_structural   V4ZnO8
_chemical_formula_sum   'V4 Zn1 O8'
_cell_volume   151.98087775
_cell_formula_units_Z   1
loop_
 _symmetry_equiv_pos_site_id
 _symmetry_equiv_pos_as_xyz
  1  'x, y, z'
loop_
 _atom_site_type_symbol
 _atom_site_label
 _atom_site_symmetry_multiplicity
 _atom_site_fract_x
 _atom_site_fract_y
 _atom_site_fract_z
 _atom_site_occupancy
  V  V0  1  0.630424  0.178156  0.561308  1
  V  V1  1  0.149479  0.486264  0.214830  1
  V  V2  1  0.823222  0.506751  0.846778  1
  V  V3  1  0.343868  0.811299  0.501109  1
  Zn  Zn4  1  0.447770  0.036743  0.067952  1
  O  O5  1  0.839431  0.681839  0.639567  1
  O  O6  1  0.447831  0.351851  0.752493  1
  O  O7  1  0.525723  0.639906  0.308817  1
  O  O8  1  0.134798  0.307742  0.423401  1
  O  O9  1  0.151209  0.027626  0.669971  1
  O  O10  1  0.779395  0.350035  0.091110  1
  O  O11  1  0.823806  0.967518  0.384924  1
  O  O12  1  0.200525  0.630375  0.968386  1
