# generated using pymatgen
data_VZnO2
_symmetry_space_group_name_H-M   'P 1'
_cell_length_a   3.06092359
_cell_length_b   8.21692913
_cell_length_c   7.63593075
_cell_angle_alpha   86.62707790
_cell_angle_beta   78.44466021
_cell_angle_gamma   79.19515787
_symmetry_Int_Tables_number   1
_chemical_formula_structural   VZnO2
_chemical_formula_sum   'V4 Zn4 O8'
_cell_volume   184.78062902
_cell_formula_units_Z   4
loop_
 _symmetry_equiv_pos_site_id
 _symmetry_equiv_pos_as_xyz
  1  'x, y, z'
loop_
 _atom_site_type_symbol
 _atom_site_label
 _atom_site_symmetry_multiplicity
 _atom_site_fract_x
 _atom_site_fract_y
 _atom_site_fract_z
 _atom_site_occupancy
  V  V0  1  0.643804  0.172870  0.530667  1
  V  V1  1  0.139520  0.497496  0.201747  1
  V  V2  1  0.835383  0.482955  0.825050  1
  V  V3  1  0.345260  0.806645  0.496365  1
  Zn  Zn4  1  0.366161  0.150359  0.164878  1
  Zn  Zn5  1  0.680116  0.830939  0.862452  1
  Zn  Zn6  1  0.031846  0.864533  0.123777  1
  Zn  Zn7  1  0.012723  0.117335  0.903385  1
  O  O8  1  0.825384  0.699545  0.642882  1
  O  O9  1  0.458715  0.329889  0.732478  1
  O  O10  1  0.517130  0.648845  0.295342  1
  O  O11  1  0.163985  0.279199  0.385833  1
  O  O12  1  0.150291  0.031713  0.655088  1
  O  O13  1  0.762073  0.374111  0.081655  1
  O  O14  1  0.834086  0.946561  0.373763  1
  O  O15  1  0.213969  0.605129  0.945502  1
