# generated using pymatgen
data_MgSn4O9
_symmetry_space_group_name_H-M   'P 1'
_cell_length_a   5.06677198
_cell_length_b   8.15718826
_cell_length_c   8.15612844
_cell_angle_alpha   90.00707071
_cell_angle_beta   89.99944764
_cell_angle_gamma   89.99926344
_symmetry_Int_Tables_number   1
_chemical_formula_structural   MgSn4O9
_chemical_formula_sum   'Mg2 Sn8 O18'
_cell_volume   337.09778445
_cell_formula_units_Z   2
loop_
 _symmetry_equiv_pos_site_id
 _symmetry_equiv_pos_as_xyz
  1  'x, y, z'
loop_
 _atom_site_type_symbol
 _atom_site_label
 _atom_site_symmetry_multiplicity
 _atom_site_fract_x
 _atom_site_fract_y
 _atom_site_fract_z
 _atom_site_occupancy
  Mg  Mg0  1  0.280150  0.250000  0.250000  1
  Mg  Mg1  1  0.719869  0.749996  0.749995  1
  Sn  Sn2  1  0.731485  0.561963  0.363685  1
  Sn  Sn3  1  0.268364  0.863671  0.438113  1
  Sn  Sn4  1  0.731624  0.363676  0.938109  1
  Sn  Sn5  1  0.268515  0.061966  0.863686  1
  Sn  Sn6  1  0.731491  0.938040  0.136311  1
  Sn  Sn7  1  0.731631  0.136329  0.561888  1
  Sn  Sn8  1  0.268510  0.438034  0.636314  1
  Sn  Sn9  1  0.268373  0.636329  0.061883  1
  O  O10  1  0.499992  0.750001  0.250004  1
  O  O11  1  0.500013  0.249998  0.750003  1
  O  O12  1  0.917447  0.745861  0.003743  1
  O  O13  1  0.917630  0.496097  0.745891  1
  O  O14  1  0.917640  0.003901  0.754104  1
  O  O15  1  0.917458  0.754138  0.496257  1
  O  O16  1  0.082542  0.254140  0.996259  1
  O  O17  1  0.082370  0.503908  0.254104  1
  O  O18  1  0.082360  0.996086  0.245893  1
  O  O19  1  0.082542  0.245860  0.503746  1
  O  O20  1  0.558027  0.044411  0.353047  1
  O  O21  1  0.558242  0.146923  0.044382  1
  O  O22  1  0.558230  0.353082  0.455613  1
  O  O23  1  0.558033  0.455597  0.146954  1
  O  O24  1  0.441967  0.544409  0.853052  1
  O  O25  1  0.441760  0.853079  0.955620  1
  O  O26  1  0.441766  0.646916  0.544383  1
  O  O27  1  0.441972  0.955588  0.646962  1
