# generated using pymatgen
data_FeS2
_symmetry_space_group_name_H-M   'P 1'
_cell_length_a   6.57661660
_cell_length_b   6.57522040
_cell_length_c   6.57516987
_cell_angle_alpha   59.94691879
_cell_angle_beta   59.97589735
_cell_angle_gamma   59.97811069
_symmetry_Int_Tables_number   1
_chemical_formula_structural   FeS2
_chemical_formula_sum   'Fe4 S8'
_cell_volume   200.89973951
_cell_formula_units_Z   4
loop_
 _symmetry_equiv_pos_site_id
 _symmetry_equiv_pos_as_xyz
  1  'x, y, z'
loop_
 _atom_site_type_symbol
 _atom_site_label
 _atom_site_symmetry_multiplicity
 _atom_site_fract_x
 _atom_site_fract_y
 _atom_site_fract_z
 _atom_site_occupancy
  Fe  Fe0  1  0.500000  1.000000  0.500000  1
  Fe  Fe1  1  0.000000  0.500000  0.500000  1
  Fe  Fe2  1  0.500000  0.500000  0.999999  1
  Fe  Fe3  1  0.500000  0.500000  0.500000  1
  S  S4  1  0.745365  0.745397  0.745393  1
  S  S5  1  0.254588  0.254592  0.736215  1
  S  S6  1  0.254587  0.736210  0.254599  1
  S  S7  1  0.736168  0.254593  0.254597  1
  S  S8  1  0.254635  0.254603  0.254607  1
  S  S9  1  0.745412  0.745408  0.263785  1
  S  S10  1  0.263832  0.745406  0.745403  1
  S  S11  1  0.745413  0.263790  0.745401  1
