# generated using pymatgen
data_Ba2Tl2Mo3O10
_symmetry_space_group_name_H-M   'P 1'
_cell_length_a   3.93585406
_cell_length_b   3.92841711
_cell_length_c   18.79775838
_cell_angle_alpha   94.83015319
_cell_angle_beta   96.48527175
_cell_angle_gamma   89.94582233
_symmetry_Int_Tables_number   1
_chemical_formula_structural   Ba2Tl2Mo3O10
_chemical_formula_sum   'Ba2 Tl2 Mo3 O10'
_cell_volume   287.74866431
_cell_formula_units_Z   1
loop_
 _symmetry_equiv_pos_site_id
 _symmetry_equiv_pos_as_xyz
  1  'x, y, z'
loop_
 _atom_site_type_symbol
 _atom_site_label
 _atom_site_symmetry_multiplicity
 _atom_site_fract_x
 _atom_site_fract_y
 _atom_site_fract_z
 _atom_site_occupancy
  Ba  Ba0  1  0.088059  0.155982  0.287942  1
  Ba  Ba1  1  0.785691  0.827621  0.703048  1
  Tl  Tl2  1  0.608742  0.715181  0.427135  1
  Tl  Tl3  1  0.221321  0.267781  0.554692  1
  Mo  Mo4  1  0.357252  0.372986  0.828784  1
  Mo  Mo5  1  0.521332  0.604264  0.162431  1
  Mo  Mo6  1  0.430542  0.544591  0.008666  1
  O  O7  1  0.359137  0.876172  0.831030  1
  O  O8  1  0.295264  0.336727  0.722344  1
  O  O9  1  0.857660  0.374910  0.830080  1
  O  O10  1  0.826749  0.761475  0.535650  1
  O  O11  1  0.927845  0.540252  0.005863  1
  O  O12  1  0.031288  0.609708  0.180350  1
  O  O13  1  0.612751  0.667119  0.311738  1
  O  O14  1  0.524206  0.106047  0.168935  1
  O  O15  1  0.275677  0.216366  0.428823  1
  O  O16  1  0.426951  0.041522  0.005542  1
