# generated using pymatgen
data_ZnNiO2
_symmetry_space_group_name_H-M   'P 1'
_cell_length_a   3.00458049
_cell_length_b   8.02688013
_cell_length_c   8.02553674
_cell_angle_alpha   76.50034798
_cell_angle_beta   78.85934237
_cell_angle_gamma   79.47331836
_symmetry_Int_Tables_number   1
_chemical_formula_structural   ZnNiO2
_chemical_formula_sum   'Zn4 Ni4 O8'
_cell_volume   182.73045886
_cell_formula_units_Z   4
loop_
 _symmetry_equiv_pos_site_id
 _symmetry_equiv_pos_as_xyz
  1  'x, y, z'
loop_
 _atom_site_type_symbol
 _atom_site_label
 _atom_site_symmetry_multiplicity
 _atom_site_fract_x
 _atom_site_fract_y
 _atom_site_fract_z
 _atom_site_occupancy
  Zn  Zn0  1  0.304171  0.123421  0.257743  1
  Zn  Zn1  1  0.707629  0.856491  0.771414  1
  Zn  Zn2  1  0.054523  0.785687  0.119965  1
  Zn  Zn3  1  0.943327  0.194398  0.907980  1
  Ni  Ni4  1  0.576017  0.229166  0.579530  1
  Ni  Ni5  1  0.164187  0.460870  0.195188  1
  Ni  Ni6  1  0.823384  0.519056  0.832243  1
  Ni  Ni7  1  0.413234  0.749977  0.448922  1
  O  O8  1  0.855790  0.700065  0.607230  1
  O  O9  1  0.436742  0.350697  0.775068  1
  O  O10  1  0.557688  0.629579  0.252504  1
  O  O11  1  0.132977  0.280524  0.421119  1
  O  O12  1  0.130776  0.031287  0.756673  1
  O  O13  1  0.783899  0.313510  0.101264  1
  O  O14  1  0.881364  0.948774  0.271572  1
  O  O15  1  0.202568  0.665833  0.927206  1
