# generated using pymatgen
data_Sr2AlGaFe2O7
_symmetry_space_group_name_H-M   'P 1'
_cell_length_a   5.50732865
_cell_length_b   5.75675609
_cell_length_c   11.79317124
_cell_angle_alpha   104.11946455
_cell_angle_beta   103.66201368
_cell_angle_gamma   90.01033724
_symmetry_Int_Tables_number   1
_chemical_formula_structural   Sr2AlGaFe2O7
_chemical_formula_sum   'Sr4 Al2 Ga2 Fe4 O14'
_cell_volume   351.67637041
_cell_formula_units_Z   2
loop_
 _symmetry_equiv_pos_site_id
 _symmetry_equiv_pos_as_xyz
  1  'x, y, z'
loop_
 _atom_site_type_symbol
 _atom_site_label
 _atom_site_symmetry_multiplicity
 _atom_site_fract_x
 _atom_site_fract_y
 _atom_site_fract_z
 _atom_site_occupancy
  Sr  Sr0  1  0.144154  0.179424  0.299891  1
  Sr  Sr1  1  0.841831  0.823246  0.696469  1
  Sr  Sr2  1  0.644065  0.624499  0.300066  1
  Sr  Sr3  1  0.343506  0.376444  0.696445  1
  Al  Al4  1  0.504701  0.499718  0.002550  1
  Al  Al5  1  0.002369  0.999502  0.002544  1
  Ga  Ga6  1  0.214397  0.821109  0.496187  1
  Ga  Ga7  1  0.714659  0.179202  0.496256  1
  Fe  Fe8  1  0.441520  0.945029  0.881836  1
  Fe  Fe9  1  0.067426  0.574933  0.135019  1
  Fe  Fe10  1  0.942549  0.432461  0.881349  1
  Fe  Fe11  1  0.566484  0.060610  0.135027  1
  O  O12  1  0.864105  0.214906  0.105400  1
  O  O13  1  0.873968  0.886256  0.498029  1
  O  O14  1  0.365245  0.390956  0.106173  1
  O  O15  1  0.852834  0.382210  0.645791  1
  O  O16  1  0.609404  0.277284  0.884361  1
  O  O17  1  0.109622  0.104168  0.885284  1
  O  O18  1  0.373936  0.115713  0.497765  1
  O  O19  1  0.270934  0.619303  0.895148  1
  O  O20  1  0.769955  0.772252  0.894426  1
  O  O21  1  0.353027  0.766877  0.645438  1
  O  O22  1  0.190591  0.624736  0.341817  1
  O  O23  1  0.691205  0.220904  0.341878  1
  O  O24  1  0.731554  0.713713  0.118199  1
  O  O25  1  0.231106  0.904889  0.118763  1
