# generated using pymatgen
data_LaMgCrSbO6
_symmetry_space_group_name_H-M   'P 1'
_cell_length_a   5.48368640
_cell_length_b   5.69855305
_cell_length_c   7.96250190
_cell_angle_alpha   90.00000000
_cell_angle_beta   89.70938469
_cell_angle_gamma   90.00000000
_symmetry_Int_Tables_number   1
_chemical_formula_structural   LaMgCrSbO6
_chemical_formula_sum   'La2 Mg2 Cr2 Sb2 O12'
_cell_volume   248.81764116
_cell_formula_units_Z   2
loop_
 _symmetry_equiv_pos_site_id
 _symmetry_equiv_pos_as_xyz
  1  'x, y, z'
loop_
 _atom_site_type_symbol
 _atom_site_label
 _atom_site_symmetry_multiplicity
 _atom_site_fract_x
 _atom_site_fract_y
 _atom_site_fract_z
 _atom_site_occupancy
  La  La0  1  0.011838  0.947856  0.750621  1
  La  La1  1  0.511838  0.552144  0.250621  1
  Mg  Mg2  1  0.477923  0.446605  0.747138  1
  Mg  Mg3  1  0.977923  0.053395  0.247138  1
  Cr  Cr4  1  0.500484  0.005962  0.498902  1
  Cr  Cr5  1  0.000484  0.494038  0.998902  1
  Sb  Sb6  1  0.499743  0.004901  0.001475  1
  Sb  Sb7  1  -0.000257  0.495099  0.501475  1
  O  O8  1  0.097328  0.432755  0.248974  1
  O  O9  1  0.208408  0.212885  0.939133  1
  O  O10  1  0.212490  0.215557  0.565839  1
  O  O11  1  0.312578  0.682797  0.933645  1
  O  O12  1  0.321340  0.689193  0.561899  1
  O  O13  1  0.357865  0.965654  0.252375  1
  O  O14  1  0.597328  0.067245  0.748974  1
  O  O15  1  0.708408  0.287115  0.439133  1
  O  O16  1  0.712490  0.284443  0.065839  1
  O  O17  1  0.812578  0.817203  0.433645  1
  O  O18  1  0.821340  0.810807  0.061899  1
  O  O19  1  0.857865  0.534346  0.752375  1
