# generated using pymatgen
data_MgCr2O5
_symmetry_space_group_name_H-M   'P 1'
_cell_length_a   3.69745720
_cell_length_b   5.36454718
_cell_length_c   11.26164648
_cell_angle_alpha   89.99206712
_cell_angle_beta   90.00000000
_cell_angle_gamma   110.15857643
_symmetry_Int_Tables_number   1
_chemical_formula_structural   MgCr2O5
_chemical_formula_sum   'Mg2 Cr4 O10'
_cell_volume   209.69329956
_cell_formula_units_Z   2
loop_
 _symmetry_equiv_pos_site_id
 _symmetry_equiv_pos_as_xyz
  1  'x, y, z'
loop_
 _atom_site_type_symbol
 _atom_site_label
 _atom_site_symmetry_multiplicity
 _atom_site_fract_x
 _atom_site_fract_y
 _atom_site_fract_z
 _atom_site_occupancy
  Mg  Mg0  1  0.893119  0.786235  0.749998  1
  Mg  Mg1  1  0.106870  0.213742  0.250006  1
  Cr  Cr2  1  0.208124  0.416247  0.596720  1
  Cr  Cr3  1  0.791884  0.583769  0.403268  1
  Cr  Cr4  1  0.791762  0.583525  0.096687  1
  Cr  Cr5  1  0.208202  0.416404  0.903309  1
  O  O6  1  0.699627  0.399254  0.249977  1
  O  O7  1  0.300364  0.600727  0.750004  1
  O  O8  1  0.231744  0.463489  0.077854  1
  O  O9  1  0.768264  0.536526  0.922167  1
  O  O10  1  0.768277  0.536553  0.577851  1
  O  O11  1  0.231719  0.463439  0.422153  1
  O  O12  1  0.045018  0.090036  0.633588  1
  O  O13  1  0.954973  0.909946  0.366410  1
  O  O14  1  0.044924  0.089847  0.866381  1
  O  O15  1  0.955134  0.910269  0.133629  1
