# generated using pymatgen
data_Ca2Ta2CuO8
_symmetry_space_group_name_H-M   'P 1'
_cell_length_a   5.40318611
_cell_length_b   6.71245392
_cell_length_c   9.99932854
_cell_angle_alpha   108.72863231
_cell_angle_beta   92.84601597
_cell_angle_gamma   90.62877967
_symmetry_Int_Tables_number   1
_chemical_formula_structural   Ca2Ta2CuO8
_chemical_formula_sum   'Ca4 Ta4 Cu2 O16'
_cell_volume   342.89650100
_cell_formula_units_Z   2
loop_
 _symmetry_equiv_pos_site_id
 _symmetry_equiv_pos_as_xyz
  1  'x, y, z'
loop_
 _atom_site_type_symbol
 _atom_site_label
 _atom_site_symmetry_multiplicity
 _atom_site_fract_x
 _atom_site_fract_y
 _atom_site_fract_z
 _atom_site_occupancy
  Ca  Ca0  1  0.756161  0.457820  0.585983  1
  Ca  Ca1  1  0.743973  0.872158  0.416489  1
  Ca  Ca2  1  0.244200  0.542785  0.413962  1
  Ca  Ca3  1  0.256802  0.128799  0.583720  1
  Ta  Ta4  1  0.733517  0.261163  0.230139  1
  Ta  Ta5  1  0.767379  0.023532  0.769415  1
  Ta  Ta6  1  0.266824  0.739593  0.769780  1
  Ta  Ta7  1  0.232870  0.977075  0.230707  1
  Cu  Cu8  1  0.749012  0.696989  0.999649  1
  Cu  Cu9  1  0.251343  0.303092  0.000246  1
  O  O10  1  0.065484  0.198282  0.146252  1
  O  O11  1  0.440049  0.037869  0.855232  1
  O  O12  1  0.935120  0.802402  0.853932  1
  O  O13  1  0.560179  0.962860  0.144748  1
  O  O14  1  0.543960  0.385646  0.117772  1
  O  O15  1  0.963514  0.254883  0.879553  1
  O  O16  1  0.456299  0.614957  0.882039  1
  O  O17  1  0.036698  0.745600  0.120686  1
  O  O18  1  0.476180  0.250866  0.369734  1
  O  O19  1  0.024322  0.877828  0.631436  1
  O  O20  1  0.331581  0.847621  0.371324  1
  O  O21  1  0.167512  0.472941  0.628992  1
  O  O22  1  0.668922  0.153292  0.628829  1
  O  O23  1  0.832668  0.527988  0.370977  1
  O  O24  1  0.975684  0.122846  0.368696  1
  O  O25  1  0.524163  0.749939  0.630343  1
