# generated using pymatgen
data_Ca3Si3(MoO6)2
_symmetry_space_group_name_H-M   'P 1'
_cell_length_a   10.80234571
_cell_length_b   10.80234602
_cell_length_c   10.80234565
_cell_angle_alpha   109.47122191
_cell_angle_beta   109.47122253
_cell_angle_gamma   109.47121819
_symmetry_Int_Tables_number   1
_chemical_formula_structural   Ca3Si3(MoO6)2
_chemical_formula_sum   'Ca12 Si12 Mo8 O48'
_cell_volume   970.35876119
_cell_formula_units_Z   4
loop_
 _symmetry_equiv_pos_site_id
 _symmetry_equiv_pos_as_xyz
  1  'x, y, z'
loop_
 _atom_site_type_symbol
 _atom_site_label
 _atom_site_symmetry_multiplicity
 _atom_site_fract_x
 _atom_site_fract_y
 _atom_site_fract_z
 _atom_site_occupancy
  Ca  Ca0  1  0.375000  0.750000  0.125000  1
  Ca  Ca1  1  0.125000  0.250000  0.375000  1
  Ca  Ca2  1  0.375000  0.125000  0.250000  1
  Ca  Ca3  1  0.125000  0.375000  0.750000  1
  Ca  Ca4  1  0.875000  0.750000  0.625000  1
  Ca  Ca5  1  0.750000  0.125000  0.375000  1
  Ca  Ca6  1  0.750000  0.625000  0.875000  1
  Ca  Ca7  1  0.625000  0.250000  0.875000  1
  Ca  Ca8  1  0.250000  0.875000  0.625000  1
  Ca  Ca9  1  0.875000  0.625000  0.250000  1
  Ca  Ca10  1  0.625000  0.875000  0.750000  1
  Ca  Ca11  1  0.250000  0.375000  0.125000  1
  Si  Si12  1  0.250000  0.125000  0.875000  1
  Si  Si13  1  0.750000  0.875000  0.125000  1
  Si  Si14  1  0.375000  0.250000  0.625000  1
  Si  Si15  1  0.625000  0.375000  0.250000  1
  Si  Si16  1  0.125000  0.750000  0.875000  1
  Si  Si17  1  0.875000  0.125000  0.750000  1
  Si  Si18  1  0.750000  0.375000  0.625000  1
  Si  Si19  1  0.375000  0.625000  0.750000  1
  Si  Si20  1  0.125000  0.875000  0.250000  1
  Si  Si21  1  0.875000  0.250000  0.125000  1
  Si  Si22  1  0.625000  0.750000  0.375000  1
  Si  Si23  1  0.250000  0.625000  0.375000  1
  Mo  Mo24  1  0.000000  0.000000  0.000000  1
  Mo  Mo25  1  0.000000  0.500000  0.000000  1
  Mo  Mo26  1  0.000000  0.000000  0.500000  1
  Mo  Mo27  1  0.000000  0.500000  0.500000  1
  Mo  Mo28  1  0.500000  0.000000  0.500000  1
  Mo  Mo29  1  0.500000  0.500000  0.000000  1
  Mo  Mo30  1  0.500000  0.500000  0.500000  1
  Mo  Mo31  1  0.500000  0.000000  0.000000  1
  O  O32  1  0.289002  0.489798  0.380145  1
  O  O33  1  0.010202  0.299204  0.890346  1
  O  O34  1  0.119855  0.609654  0.908857  1
  O  O35  1  0.210998  0.591143  0.200796  1
  O  O36  1  0.210998  0.119855  0.010202  1
  O  O37  1  0.591143  0.200796  0.210998  1
  O  O38  1  0.609654  0.200796  0.489798  1
  O  O39  1  0.200796  0.210998  0.591143  1
  O  O40  1  0.890346  0.380145  0.591143  1
  O  O41  1  0.299204  0.908857  0.289002  1
  O  O42  1  0.908857  0.289002  0.299204  1
  O  O43  1  0.010202  0.210998  0.119855  1
  O  O44  1  0.200796  0.489798  0.609654  1
  O  O45  1  0.591143  0.890346  0.380145  1
  O  O46  1  0.119855  0.010202  0.210998  1
  O  O47  1  0.489798  0.609654  0.200796  1
  O  O48  1  0.380145  0.591143  0.890346  1
  O  O49  1  0.890346  0.010202  0.299204  1
  O  O50  1  0.609654  0.908857  0.119855  1
  O  O51  1  0.109654  0.619855  0.408857  1
  O  O52  1  0.908857  0.119855  0.609654  1
  O  O53  1  0.380145  0.289002  0.489798  1
  O  O54  1  0.299204  0.890346  0.010202  1
  O  O55  1  0.289002  0.299204  0.908857  1
  O  O56  1  0.710998  0.510202  0.619855  1
  O  O57  1  0.989798  0.700796  0.109654  1
  O  O58  1  0.880145  0.390346  0.091143  1
  O  O59  1  0.789002  0.408857  0.799204  1
  O  O60  1  0.789002  0.880145  0.989798  1
  O  O61  1  0.408857  0.799204  0.789002  1
  O  O62  1  0.390346  0.799204  0.510202  1
  O  O63  1  0.799204  0.789002  0.408857  1
  O  O64  1  0.710998  0.700796  0.091143  1
  O  O65  1  0.700796  0.109654  0.989798  1
  O  O66  1  0.619855  0.710998  0.510202  1
  O  O67  1  0.510202  0.619855  0.710998  1
  O  O68  1  0.091143  0.880145  0.390346  1
  O  O69  1  0.390346  0.091143  0.880145  1
  O  O70  1  0.109654  0.989798  0.700796  1
  O  O71  1  0.619855  0.408857  0.109654  1
  O  O72  1  0.510202  0.390346  0.799204  1
  O  O73  1  0.880145  0.989798  0.789002  1
  O  O74  1  0.408857  0.109654  0.619855  1
  O  O75  1  0.799204  0.510202  0.390346  1
  O  O76  1  0.989798  0.789002  0.880145  1
  O  O77  1  0.091143  0.710998  0.700796  1
  O  O78  1  0.700796  0.091143  0.710998  1
  O  O79  1  0.489798  0.380145  0.289002  1
