# generated using pymatgen
data_CaFeAs2O7
_symmetry_space_group_name_H-M   'P 1'
_cell_length_a   7.54914122
_cell_length_b   9.17433357
_cell_length_c   9.56394410
_cell_angle_alpha   90.00000000
_cell_angle_beta   111.16962223
_cell_angle_gamma   90.00000000
_symmetry_Int_Tables_number   1
_chemical_formula_structural   CaFeAs2O7
_chemical_formula_sum   'Ca4 Fe4 As8 O28'
_cell_volume   617.68224547
_cell_formula_units_Z   4
loop_
 _symmetry_equiv_pos_site_id
 _symmetry_equiv_pos_as_xyz
  1  'x, y, z'
loop_
 _atom_site_type_symbol
 _atom_site_label
 _atom_site_symmetry_multiplicity
 _atom_site_fract_x
 _atom_site_fract_y
 _atom_site_fract_z
 _atom_site_occupancy
  Ca  Ca0  1  0.256888  0.932866  0.929480  1
  Ca  Ca1  1  0.743112  0.432866  0.570520  1
  Ca  Ca2  1  0.743112  0.067134  0.070520  1
  Ca  Ca3  1  0.256888  0.567134  0.429480  1
  Fe  Fe4  1  0.802136  0.055123  0.692614  1
  Fe  Fe5  1  0.197864  0.555123  0.807386  1
  Fe  Fe6  1  0.197864  0.944877  0.307386  1
  Fe  Fe7  1  0.802136  0.444877  0.192614  1
  As  As8  1  0.419515  0.238029  0.735531  1
  As  As9  1  0.580485  0.738029  0.764469  1
  As  As10  1  0.580485  0.761971  0.264469  1
  As  As11  1  0.419515  0.261971  0.235530  1
  As  As12  1  0.016330  0.294978  0.955010  1
  As  As13  1  0.983670  0.794978  0.544990  1
  As  As14  1  0.983670  0.705022  0.044990  1
  As  As15  1  0.016330  0.205022  0.455010  1
  O  O16  1  0.855412  0.308610  0.042206  1
  O  O17  1  0.144588  0.808610  0.457794  1
  O  O18  1  0.144588  0.691390  0.957794  1
  O  O19  1  0.855412  0.191390  0.542206  1
  O  O20  1  0.343209  0.413416  0.727376  1
  O  O21  1  0.656791  0.913416  0.772624  1
  O  O22  1  0.656791  0.586584  0.272624  1
  O  O23  1  0.343209  0.086584  0.227376  1
  O  O24  1  0.432738  0.134270  0.886519  1
  O  O25  1  0.567262  0.634270  0.613481  1
  O  O26  1  0.567262  0.865730  0.113481  1
  O  O27  1  0.432738  0.365730  0.386519  1
  O  O28  1  0.245753  0.146329  0.577210  1
  O  O29  1  0.754247  0.646329  0.922790  1
  O  O30  1  0.754247  0.853671  0.422790  1
  O  O31  1  0.245753  0.353671  0.077210  1
  O  O32  1  0.984192  0.088663  0.309958  1
  O  O33  1  0.015808  0.588663  0.190042  1
  O  O34  1  0.015808  0.911337  0.690042  1
  O  O35  1  0.984192  0.411337  0.809958  1
  O  O36  1  0.625115  0.265025  0.200871  1
  O  O37  1  0.374885  0.765025  0.299129  1
  O  O38  1  0.374885  0.734975  0.799129  1
  O  O39  1  0.625115  0.234975  0.700871  1
  O  O40  1  0.012171  0.383869  0.405218  1
  O  O41  1  0.987829  0.883869  0.094782  1
  O  O42  1  0.987829  0.616131  0.594782  1
  O  O43  1  0.012171  0.116131  0.905218  1
