# generated using pymatgen
data_CaMn3O7
_symmetry_space_group_name_H-M   'P 1'
_cell_length_a   5.43734988
_cell_length_b   10.58881586
_cell_length_c   10.43496723
_cell_angle_alpha   90.00000000
_cell_angle_beta   90.00000000
_cell_angle_gamma   90.00000000
_symmetry_Int_Tables_number   1
_chemical_formula_structural   CaMn3O7
_chemical_formula_sum   'Ca4 Mn12 O28'
_cell_volume   600.79424676
_cell_formula_units_Z   4
loop_
 _symmetry_equiv_pos_site_id
 _symmetry_equiv_pos_as_xyz
  1  'x, y, z'
loop_
 _atom_site_type_symbol
 _atom_site_label
 _atom_site_symmetry_multiplicity
 _atom_site_fract_x
 _atom_site_fract_y
 _atom_site_fract_z
 _atom_site_occupancy
  Ca  Ca0  1  0.681355  0.750000  0.943815  1
  Ca  Ca1  1  0.181355  0.250000  0.556185  1
  Ca  Ca2  1  0.318645  0.250000  0.056185  1
  Ca  Ca3  1  0.818645  0.750000  0.443815  1
  Mn  Mn4  1  0.302364  0.024678  0.294343  1
  Mn  Mn5  1  0.802364  0.975322  0.205656  1
  Mn  Mn6  1  0.697636  0.524678  0.705657  1
  Mn  Mn7  1  0.197636  0.475322  0.794343  1
  Mn  Mn8  1  0.306423  0.750000  0.228195  1
  Mn  Mn9  1  0.806423  0.250000  0.271805  1
  Mn  Mn10  1  0.693577  0.250000  0.771805  1
  Mn  Mn11  1  0.193577  0.750000  0.728195  1
  Mn  Mn12  1  0.802364  0.524678  0.205656  1
  Mn  Mn13  1  0.302364  0.475322  0.294343  1
  Mn  Mn14  1  0.197636  0.024678  0.794343  1
  Mn  Mn15  1  0.697636  0.975322  0.705657  1
  O  O16  1  0.938005  0.119777  0.721517  1
  O  O17  1  0.438005  0.880223  0.778483  1
  O  O18  1  0.061995  0.619777  0.278483  1
  O  O19  1  0.561995  0.380223  0.221517  1
  O  O20  1  0.061995  0.880223  0.278483  1
  O  O21  1  0.561995  0.119777  0.221517  1
  O  O22  1  0.938005  0.380223  0.721517  1
  O  O23  1  0.438005  0.619777  0.778483  1
  O  O24  1  0.461049  0.118932  0.718701  1
  O  O25  1  0.961048  0.881068  0.781299  1
  O  O26  1  0.538952  0.618932  0.281299  1
  O  O27  1  0.038952  0.381068  0.218701  1
  O  O28  1  0.538952  0.881068  0.281299  1
  O  O29  1  0.038952  0.118932  0.218701  1
  O  O30  1  0.461049  0.381068  0.718701  1
  O  O31  1  0.961048  0.618932  0.781299  1
  O  O32  1  0.177091  0.750000  0.564422  1
  O  O33  1  0.677091  0.250000  0.935578  1
  O  O34  1  0.822909  0.250000  0.435578  1
  O  O35  1  0.322909  0.750000  0.064422  1
  O  O36  1  0.215909  0.427623  0.949221  1
  O  O37  1  0.715909  0.572377  0.550779  1
  O  O38  1  0.784091  0.927623  0.050779  1
  O  O39  1  0.284091  0.072377  0.449221  1
  O  O40  1  0.784091  0.572377  0.050779  1
  O  O41  1  0.284091  0.427623  0.449221  1
  O  O42  1  0.215909  0.072377  0.949221  1
  O  O43  1  0.715909  0.927623  0.550779  1
