# generated using pymatgen
data_Fe5O7
_symmetry_space_group_name_H-M   'P 1'
_cell_length_a   2.99716845
_cell_length_b   5.27513414
_cell_length_c   19.08060998
_cell_angle_alpha   90.00000000
_cell_angle_beta   90.00000000
_cell_angle_gamma   106.50413679
_symmetry_Int_Tables_number   1
_chemical_formula_structural   Fe5O7
_chemical_formula_sum   'Fe10 O14'
_cell_volume   289.24415335
_cell_formula_units_Z   2
loop_
 _symmetry_equiv_pos_site_id
 _symmetry_equiv_pos_as_xyz
  1  'x, y, z'
loop_
 _atom_site_type_symbol
 _atom_site_label
 _atom_site_symmetry_multiplicity
 _atom_site_fract_x
 _atom_site_fract_y
 _atom_site_fract_z
 _atom_site_occupancy
  Fe  Fe0  1  0.263113  0.526223  0.574613  1
  Fe  Fe1  1  0.000000  0.000000  0.500000  1
  Fe  Fe2  1  0.000000  0.000000  0.000000  1
  Fe  Fe3  1  0.736887  0.473776  0.425387  1
  Fe  Fe4  1  0.736887  0.473776  0.074613  1
  Fe  Fe5  1  0.263113  0.526223  0.925387  1
  Fe  Fe6  1  0.475495  0.950989  0.161658  1
  Fe  Fe7  1  0.524505  0.049010  0.838343  1
  Fe  Fe8  1  0.524505  0.049010  0.661657  1
  Fe  Fe9  1  0.475495  0.950989  0.338343  1
  O  O10  1  0.648626  0.297251  0.973478  1
  O  O11  1  0.351375  0.702750  0.026522  1
  O  O12  1  0.351375  0.702750  0.473478  1
  O  O13  1  0.648626  0.297251  0.526522  1
  O  O14  1  0.147505  0.295010  0.845427  1
  O  O15  1  0.852495  0.704990  0.154573  1
  O  O16  1  0.852495  0.704990  0.345428  1
  O  O17  1  0.147505  0.295010  0.654573  1
  O  O18  1  0.898972  0.797942  0.900230  1
  O  O19  1  0.101028  0.202058  0.099770  1
  O  O20  1  0.101028  0.202058  0.400230  1
  O  O21  1  0.898972  0.797942  0.599770  1
  O  O22  1  0.453990  0.907980  0.750000  1
  O  O23  1  0.546011  0.092022  0.250000  1
