# generated using pymatgen
data_Mg3Sn3(AsO4)4
_symmetry_space_group_name_H-M   'P 1'
_cell_length_a   5.54763415
_cell_length_b   9.18492387
_cell_length_c   15.31625341
_cell_angle_alpha   90.35764676
_cell_angle_beta   90.00000000
_cell_angle_gamma   90.00000000
_symmetry_Int_Tables_number   1
_chemical_formula_structural   Mg3Sn3(AsO4)4
_chemical_formula_sum   'Mg6 Sn6 As8 O32'
_cell_volume   780.41832060
_cell_formula_units_Z   2
loop_
 _symmetry_equiv_pos_site_id
 _symmetry_equiv_pos_as_xyz
  1  'x, y, z'
loop_
 _atom_site_type_symbol
 _atom_site_label
 _atom_site_symmetry_multiplicity
 _atom_site_fract_x
 _atom_site_fract_y
 _atom_site_fract_z
 _atom_site_occupancy
  Mg  Mg0  1  0.934330  0.046278  0.721331  1
  Mg  Mg1  1  0.434330  0.453722  0.778669  1
  Mg  Mg2  1  0.065670  0.953722  0.278669  1
  Mg  Mg3  1  0.565670  0.546278  0.221331  1
  Mg  Mg4  1  0.000000  0.000000  0.000000  1
  Mg  Mg5  1  0.500000  0.500000  0.500000  1
  Sn  Sn6  1  0.958881  0.305151  0.135275  1
  Sn  Sn7  1  0.041119  0.694849  0.864725  1
  Sn  Sn8  1  0.458881  0.194849  0.364725  1
  Sn  Sn9  1  0.541119  0.805151  0.635275  1
  Sn  Sn10  1  0.500000  0.500000  0.000000  1
  Sn  Sn11  1  0.000000  0.000000  0.500000  1
  As  As12  1  0.506006  0.884665  0.866825  1
  As  As13  1  0.959767  0.316116  0.879814  1
  As  As14  1  0.459767  0.183884  0.620186  1
  As  As15  1  0.540233  0.816116  0.379814  1
  As  As16  1  0.493994  0.115335  0.133175  1
  As  As17  1  0.040233  0.683884  0.120186  1
  As  As18  1  0.993994  0.384665  0.366825  1
  As  As19  1  0.006006  0.615335  0.633175  1
  O  O20  1  0.157277  0.582182  0.730776  1
  O  O21  1  0.437607  0.272181  0.522438  1
  O  O22  1  0.026084  0.214603  0.791348  1
  O  O23  1  0.947982  0.806019  0.629928  1
  O  O24  1  0.973916  0.785397  0.208652  1
  O  O25  1  0.342723  0.082182  0.230776  1
  O  O26  1  0.526084  0.285397  0.708652  1
  O  O27  1  0.791081  0.926289  0.366695  1
  O  O28  1  0.812684  0.439933  0.447340  1
  O  O29  1  0.842723  0.417818  0.269224  1
  O  O30  1  0.552018  0.306019  0.129928  1
  O  O31  1  0.208919  0.073711  0.633305  1
  O  O32  1  0.196806  0.443988  0.888611  1
  O  O33  1  0.187316  0.560067  0.552660  1
  O  O34  1  0.792537  0.057492  0.133340  1
  O  O35  1  0.292537  0.442508  0.366660  1
  O  O36  1  0.696806  0.056012  0.611389  1
  O  O37  1  0.473916  0.714603  0.291348  1
  O  O38  1  0.312684  0.060067  0.052660  1
  O  O39  1  0.291081  0.573711  0.133305  1
  O  O40  1  0.707463  0.557492  0.633340  1
  O  O41  1  0.207463  0.942508  0.866660  1
  O  O42  1  0.562393  0.727819  0.477562  1
  O  O43  1  0.937607  0.227819  0.977562  1
  O  O44  1  0.803194  0.556012  0.111389  1
  O  O45  1  0.657277  0.917818  0.769224  1
  O  O46  1  0.052018  0.193981  0.370072  1
  O  O47  1  0.687316  0.939933  0.947340  1
  O  O48  1  0.062393  0.772181  0.022438  1
  O  O49  1  0.708919  0.426289  0.866695  1
  O  O50  1  0.303194  0.943988  0.388611  1
  O  O51  1  0.447982  0.693981  0.870072  1
