# generated using pymatgen
data_Zn(SbO2)2
_symmetry_space_group_name_H-M   'P 1'
_cell_length_a   3.20505581
_cell_length_b   5.65942512
_cell_length_c   11.11763141
_cell_angle_alpha   90.00000000
_cell_angle_beta   90.00000000
_cell_angle_gamma   106.44894794
_symmetry_Int_Tables_number   1
_chemical_formula_structural   Zn(SbO2)2
_chemical_formula_sum   'Zn2 Sb4 O8'
_cell_volume   193.40673244
_cell_formula_units_Z   2
loop_
 _symmetry_equiv_pos_site_id
 _symmetry_equiv_pos_as_xyz
  1  'x, y, z'
loop_
 _atom_site_type_symbol
 _atom_site_label
 _atom_site_symmetry_multiplicity
 _atom_site_fract_x
 _atom_site_fract_y
 _atom_site_fract_z
 _atom_site_occupancy
  Zn  Zn0  1  0.384490  0.768980  0.750000  1
  Zn  Zn1  1  0.615510  0.231020  0.250000  1
  Sb  Sb2  1  0.868773  0.737546  0.081143  1
  Sb  Sb3  1  0.131227  0.262454  0.918857  1
  Sb  Sb4  1  0.868773  0.737546  0.418857  1
  Sb  Sb5  1  0.131227  0.262454  0.581143  1
  O  O6  1  0.221327  0.442653  0.374605  1
  O  O7  1  0.778673  0.557347  0.625395  1
  O  O8  1  0.778673  0.557347  0.874605  1
  O  O9  1  0.221327  0.442653  0.125395  1
  O  O10  1  0.987502  0.975005  0.250000  1
  O  O11  1  0.012498  0.024995  0.750000  1
  O  O12  1  0.500000  0.000000  0.000000  1
  O  O13  1  0.500000  0.000000  0.500000  1
