# generated using pymatgen
data_YCu3(SbO3)4
_symmetry_space_group_name_H-M   'P 1'
_cell_length_a   6.86374765
_cell_length_b   6.86384201
_cell_length_c   6.86540142
_cell_angle_alpha   109.47727847
_cell_angle_beta   109.47887088
_cell_angle_gamma   109.44971648
_symmetry_Int_Tables_number   1
_chemical_formula_structural   YCu3(SbO3)4
_chemical_formula_sum   'Y1 Cu3 Sb4 O12'
_cell_volume   249.00862094
_cell_formula_units_Z   1
loop_
 _symmetry_equiv_pos_site_id
 _symmetry_equiv_pos_as_xyz
  1  'x, y, z'
loop_
 _atom_site_type_symbol
 _atom_site_label
 _atom_site_symmetry_multiplicity
 _atom_site_fract_x
 _atom_site_fract_y
 _atom_site_fract_z
 _atom_site_occupancy
  Y  Y0  1  0.999999  0.999997  0.999996  1
  Cu  Cu1  1  0.499997  0.999996  0.500000  1
  Cu  Cu2  1  0.500000  0.499998  0.999996  1
  Cu  Cu3  1  0.000002  0.500004  0.500001  1
  Sb  Sb4  1  0.500001  0.000002  0.000002  1
  Sb  Sb5  1  1.000000  0.000001  0.500000  1
  Sb  Sb6  1  0.000002  0.500000  1.000000  1
  Sb  Sb7  1  0.500000  0.499999  0.499999  1
  O  O8  1  0.832458  0.293599  0.126074  1
  O  O9  1  0.167543  0.706406  0.873929  1
  O  O10  1  0.832406  0.706412  0.538850  1
  O  O11  1  0.293419  0.461142  0.167257  1
  O  O12  1  0.461109  0.167143  0.293519  1
  O  O13  1  0.126382  0.832412  0.293510  1
  O  O14  1  0.706085  0.873834  0.167228  1
  O  O15  1  0.538892  0.832855  0.706487  1
  O  O16  1  0.167595  0.293592  0.461153  1
  O  O17  1  0.706584  0.538858  0.832740  1
  O  O18  1  0.873614  0.167584  0.706490  1
  O  O19  1  0.293915  0.126166  0.832769  1
