# generated using pymatgen
data_SnO2
_symmetry_space_group_name_H-M   'P 1'
_cell_length_a   3.94059571
_cell_length_b   3.94059568
_cell_length_c   11.26104229
_cell_angle_alpha   90.00000000
_cell_angle_beta   90.00000000
_cell_angle_gamma   120.00000036
_symmetry_Int_Tables_number   1
_chemical_formula_structural   SnO2
_chemical_formula_sum   'Sn2 O4'
_cell_volume   151.43734129
_cell_formula_units_Z   2
loop_
 _symmetry_equiv_pos_site_id
 _symmetry_equiv_pos_as_xyz
  1  'x, y, z'
loop_
 _atom_site_type_symbol
 _atom_site_label
 _atom_site_symmetry_multiplicity
 _atom_site_fract_x
 _atom_site_fract_y
 _atom_site_fract_z
 _atom_site_occupancy
  Sn  Sn0  1  0.666667  0.333333  0.750000  1
  Sn  Sn1  1  0.333333  0.666667  0.250000  1
  O  O2  1  0.333333  0.666667  0.412722  1
  O  O3  1  0.666667  0.333333  0.912722  1
  O  O4  1  0.333333  0.666667  0.087278  1
  O  O5  1  0.666667  0.333333  0.587278  1
