# generated using pymatgen
data_CaTaTi(PO4)3
_symmetry_space_group_name_H-M   'P 1'
_cell_length_a   8.90314840
_cell_length_b   8.89149976
_cell_length_c   8.90644197
_cell_angle_alpha   59.68007235
_cell_angle_beta   59.63062622
_cell_angle_gamma   59.65344371
_symmetry_Int_Tables_number   1
_chemical_formula_structural   CaTaTi(PO4)3
_chemical_formula_sum   'Ca2 Ta2 Ti2 P6 O24'
_cell_volume   494.63757108
_cell_formula_units_Z   2
loop_
 _symmetry_equiv_pos_site_id
 _symmetry_equiv_pos_as_xyz
  1  'x, y, z'
loop_
 _atom_site_type_symbol
 _atom_site_label
 _atom_site_symmetry_multiplicity
 _atom_site_fract_x
 _atom_site_fract_y
 _atom_site_fract_z
 _atom_site_occupancy
  Ca  Ca0  1  0.001881  0.002217  0.002058  1
  Ca  Ca1  1  0.502642  0.502365  0.502666  1
  Ta  Ta2  1  0.354901  0.354998  0.355265  1
  Ta  Ta3  1  0.855149  0.854724  0.855038  1
  Ti  Ti4  1  0.145702  0.146019  0.145241  1
  Ti  Ti5  1  0.646225  0.646008  0.646342  1
  P  P6  1  0.038619  0.456815  0.751044  1
  P  P7  1  0.456781  0.751694  0.038682  1
  P  P8  1  0.751467  0.038480  0.457077  1
  P  P9  1  0.251763  0.956631  0.538747  1
  P  P10  1  0.538605  0.251748  0.957024  1
  P  P11  1  0.956844  0.538609  0.251563  1
  O  O12  1  0.118795  0.509017  0.297680  1
  O  O13  1  0.297702  0.119330  0.509078  1
  O  O14  1  0.060641  0.273597  0.914242  1
  O  O15  1  0.509172  0.298299  0.118267  1
  O  O16  1  0.008954  0.619014  0.797504  1
  O  O17  1  0.225917  0.439213  0.585177  1
  O  O18  1  0.273736  0.914754  0.060891  1
  O  O19  1  0.439268  0.584994  0.226096  1
  O  O20  1  0.200984  0.992376  0.381350  1
  O  O21  1  0.585320  0.226044  0.439552  1
  O  O22  1  0.085326  0.939228  0.725860  1
  O  O23  1  0.381300  0.199941  0.993246  1
  O  O24  1  0.618658  0.798025  0.008736  1
  O  O25  1  0.914685  0.060450  0.273766  1
  O  O26  1  0.414918  0.773533  0.561810  1
  O  O27  1  0.797732  0.008716  0.618782  1
  O  O28  1  0.561533  0.414806  0.773707  1
  O  O29  1  0.726164  0.085323  0.939151  1
  O  O30  1  0.773610  0.561293  0.414745  1
  O  O31  1  0.992636  0.381431  0.200255  1
  O  O32  1  0.492760  0.699658  0.881589  1
  O  O33  1  0.938962  0.726048  0.085244  1
  O  O34  1  0.699176  0.881415  0.493285  1
  O  O35  1  0.881466  0.493181  0.699233  1
