# generated using pymatgen
data_CaLaCrNiO6
_symmetry_space_group_name_H-M   'P 1'
_cell_length_a   5.46351036
_cell_length_b   5.54401347
_cell_length_c   7.66091916
_cell_angle_alpha   90.00000000
_cell_angle_beta   90.07911249
_cell_angle_gamma   90.00000000
_symmetry_Int_Tables_number   1
_chemical_formula_structural   CaLaCrNiO6
_chemical_formula_sum   'Ca2 La2 Cr2 Ni2 O12'
_cell_volume   232.04729683
_cell_formula_units_Z   2
loop_
 _symmetry_equiv_pos_site_id
 _symmetry_equiv_pos_as_xyz
  1  'x, y, z'
loop_
 _atom_site_type_symbol
 _atom_site_label
 _atom_site_symmetry_multiplicity
 _atom_site_fract_x
 _atom_site_fract_y
 _atom_site_fract_z
 _atom_site_occupancy
  Ca  Ca0  1  0.488985  0.454058  0.750809  1
  Ca  Ca1  1  0.988985  0.045942  0.250809  1
  La  La2  1  0.008427  0.963934  0.748687  1
  La  La3  1  0.508427  0.536066  0.248687  1
  Cr  Cr4  1  0.500995  0.001082  0.498973  1
  Cr  Cr5  1  0.000995  0.498918  0.998973  1
  Ni  Ni6  1  0.500731  0.999840  0.000456  1
  Ni  Ni7  1  0.000731  0.500160  0.500456  1
  O  O8  1  0.071481  0.479668  0.237459  1
  O  O9  1  0.206079  0.221727  0.959126  1
  O  O10  1  0.227785  0.205135  0.538857  1
  O  O11  1  0.275276  0.698626  0.957999  1
  O  O12  1  0.300427  0.720261  0.544672  1
  O  O13  1  0.419811  0.982957  0.262961  1
  O  O14  1  0.571481  0.020332  0.737459  1
  O  O15  1  0.706079  0.278273  0.459126  1
  O  O16  1  0.727785  0.294865  0.038857  1
  O  O17  1  0.775276  0.801374  0.457999  1
  O  O18  1  0.800427  0.779739  0.044672  1
  O  O19  1  0.919811  0.517043  0.762961  1
