# generated using pymatgen
data_Ba2CaV2(P2O9)2
_symmetry_space_group_name_H-M   'P 1'
_cell_length_a   7.12031070
_cell_length_b   7.36892381
_cell_length_c   14.76335667
_cell_angle_alpha   103.30765846
_cell_angle_beta   90.00000000
_cell_angle_gamma   90.00000000
_symmetry_Int_Tables_number   1
_chemical_formula_structural   Ba2CaV2(P2O9)2
_chemical_formula_sum   'Ba4 Ca2 V4 P8 O36'
_cell_volume   753.81898109
_cell_formula_units_Z   2
loop_
 _symmetry_equiv_pos_site_id
 _symmetry_equiv_pos_as_xyz
  1  'x, y, z'
loop_
 _atom_site_type_symbol
 _atom_site_label
 _atom_site_symmetry_multiplicity
 _atom_site_fract_x
 _atom_site_fract_y
 _atom_site_fract_z
 _atom_site_occupancy
  Ba  Ba0  1  0.236406  0.371168  0.429701  1
  Ba  Ba1  1  0.773914  0.614208  0.572000  1
  Ba  Ba2  1  0.726086  0.614208  0.072000  1
  Ba  Ba3  1  0.263594  0.371168  0.929701  1
  Ca  Ca4  1  0.522347  0.815059  0.842503  1
  Ca  Ca5  1  0.977653  0.815059  0.342503  1
  V  V6  1  0.515640  0.159486  0.666835  1
  V  V7  1  0.483726  0.836663  0.331415  1
  V  V8  1  0.984360  0.159486  0.166835  1
  V  V9  1  0.016274  0.836663  0.831415  1
  P  P10  1  0.718667  0.128415  0.500450  1
  P  P11  1  0.214773  0.869423  0.001352  1
  P  P12  1  0.216727  0.543079  0.194299  1
  P  P13  1  0.781333  0.128415  0.000450  1
  P  P14  1  0.721493  0.455643  0.303976  1
  P  P15  1  0.283273  0.543079  0.694299  1
  P  P16  1  0.778507  0.455643  0.803976  1
  P  P17  1  0.285227  0.869423  0.501352  1
  O  O18  1  0.664846  0.652833  0.279280  1
  O  O19  1  0.910875  0.207993  0.491281  1
  O  O20  1  0.335431  0.344476  0.711523  1
  O  O21  1  0.700431  0.021329  0.582983  1
  O  O22  1  0.815417  0.970655  0.908569  1
  O  O23  1  0.208039  0.647776  0.795100  1
  O  O24  1  0.835154  0.652833  0.779280  1
  O  O25  1  0.060338  0.719932  0.977882  1
  O  O26  1  0.362133  0.522559  0.118416  1
  O  O27  1  0.137867  0.522559  0.618416  1
  O  O28  1  0.589125  0.207993  0.991281  1
  O  O29  1  0.707508  0.343214  0.706430  1
  O  O30  1  0.164569  0.344476  0.211523  1
  O  O31  1  0.180147  0.016757  0.092353  1
  O  O32  1  0.291961  0.647776  0.295100  1
  O  O33  1  0.977490  0.054263  0.253623  1
  O  O34  1  0.615179  0.515506  0.872735  1
  O  O35  1  0.884821  0.515506  0.372735  1
  O  O36  1  0.086266  0.791104  0.493200  1
  O  O37  1  0.522510  0.054263  0.753623  1
  O  O38  1  0.940348  0.274564  0.025241  1
  O  O39  1  0.942561  0.363532  0.837937  1
  O  O40  1  0.684583  0.970655  0.408569  1
  O  O41  1  0.319853  0.016757  0.592353  1
  O  O42  1  0.200050  0.975764  0.916024  1
  O  O43  1  0.792492  0.343214  0.206430  1
  O  O44  1  0.027650  0.945675  0.749472  1
  O  O45  1  0.472350  0.945675  0.249472  1
  O  O46  1  0.413734  0.791104  0.993200  1
  O  O47  1  0.299950  0.975764  0.416024  1
  O  O48  1  0.037784  0.650508  0.183557  1
  O  O49  1  0.799569  0.021329  0.082983  1
  O  O50  1  0.439662  0.719932  0.477882  1
  O  O51  1  0.462216  0.650508  0.683557  1
  O  O52  1  0.559652  0.274564  0.525241  1
  O  O53  1  0.557439  0.363532  0.337937  1
