# generated using pymatgen
data_ReBiO5
_symmetry_space_group_name_H-M   'P 1'
_cell_length_a   6.30480006
_cell_length_b   12.50873835
_cell_length_c   16.92331680
_cell_angle_alpha   90.00000000
_cell_angle_beta   90.00000000
_cell_angle_gamma   90.00000000
_symmetry_Int_Tables_number   1
_chemical_formula_structural   ReBiO5
_chemical_formula_sum   'Re8 Bi8 O40'
_cell_volume   1334.65897529
_cell_formula_units_Z   8
loop_
 _symmetry_equiv_pos_site_id
 _symmetry_equiv_pos_as_xyz
  1  'x, y, z'
loop_
 _atom_site_type_symbol
 _atom_site_label
 _atom_site_symmetry_multiplicity
 _atom_site_fract_x
 _atom_site_fract_y
 _atom_site_fract_z
 _atom_site_occupancy
  Re  Re0  1  0.985985  0.394636  0.612046  1
  Re  Re1  1  0.514015  0.894636  0.387954  1
  Re  Re2  1  0.014015  0.605364  0.387954  1
  Re  Re3  1  0.485985  0.105364  0.612046  1
  Re  Re4  1  0.014015  0.105364  0.112046  1
  Re  Re5  1  0.985985  0.894636  0.887954  1
  Re  Re6  1  0.514015  0.394636  0.112046  1
  Re  Re7  1  0.485985  0.605364  0.887954  1
  Bi  Bi8  1  0.950716  0.822638  0.211550  1
  Bi  Bi9  1  0.049284  0.177362  0.788450  1
  Bi  Bi10  1  0.549284  0.322638  0.788450  1
  Bi  Bi11  1  0.049284  0.677362  0.711550  1
  Bi  Bi12  1  0.450716  0.177362  0.288450  1
  Bi  Bi13  1  0.450716  0.677362  0.211550  1
  Bi  Bi14  1  0.549284  0.822638  0.711550  1
  Bi  Bi15  1  0.950716  0.322638  0.288450  1
  O  O16  1  0.917433  0.303887  0.690997  1
  O  O17  1  0.244049  0.051248  0.073420  1
  O  O18  1  0.255951  0.551248  0.926580  1
  O  O19  1  0.239455  0.781557  0.155887  1
  O  O20  1  0.260545  0.281557  0.844113  1
  O  O21  1  0.917433  0.803887  0.809003  1
  O  O22  1  0.260545  0.781557  0.655887  1
  O  O23  1  0.582567  0.803887  0.309003  1
  O  O24  1  0.244049  0.551248  0.426580  1
  O  O25  1  0.082567  0.696113  0.309003  1
  O  O26  1  0.582567  0.303887  0.190997  1
  O  O27  1  0.622562  0.171156  0.538290  1
  O  O28  1  0.744049  0.948752  0.426580  1
  O  O29  1  0.760545  0.718443  0.655887  1
  O  O30  1  0.143098  0.000475  0.849290  1
  O  O31  1  0.744049  0.448752  0.073420  1
  O  O32  1  0.082567  0.196113  0.190997  1
  O  O33  1  0.739455  0.218443  0.344113  1
  O  O34  1  0.122562  0.828844  0.961710  1
  O  O35  1  0.255951  0.051248  0.573420  1
  O  O36  1  0.377438  0.828844  0.461710  1
  O  O37  1  0.856902  0.999525  0.150710  1
  O  O38  1  0.760545  0.218443  0.844113  1
  O  O39  1  0.643098  0.999525  0.650710  1
  O  O40  1  0.377438  0.328844  0.038290  1
  O  O41  1  0.122562  0.328844  0.538290  1
  O  O42  1  0.755951  0.448752  0.573420  1
  O  O43  1  0.755951  0.948752  0.926580  1
  O  O44  1  0.643098  0.499525  0.849290  1
  O  O45  1  0.877438  0.671156  0.461710  1
  O  O46  1  0.877438  0.171156  0.038290  1
  O  O47  1  0.622562  0.671156  0.961710  1
  O  O48  1  0.856902  0.499525  0.349290  1
  O  O49  1  0.739455  0.718443  0.155887  1
  O  O50  1  0.239455  0.281557  0.344113  1
  O  O51  1  0.143098  0.500475  0.650710  1
  O  O52  1  0.356902  0.500475  0.150710  1
  O  O53  1  0.417433  0.196113  0.690997  1
  O  O54  1  0.356902  0.000475  0.349290  1
  O  O55  1  0.417433  0.696113  0.809003  1
