# generated using pymatgen
data_W3Se2ClO8
_symmetry_space_group_name_H-M   'P 1'
_cell_length_a   5.79840604
_cell_length_b   8.57627021
_cell_length_c   11.67600666
_cell_angle_alpha   89.84030603
_cell_angle_beta   89.97841554
_cell_angle_gamma   89.94596022
_symmetry_Int_Tables_number   1
_chemical_formula_structural   W3Se2ClO8
_chemical_formula_sum   'W6 Se4 Cl2 O16'
_cell_volume   580.63004342
_cell_formula_units_Z   2
loop_
 _symmetry_equiv_pos_site_id
 _symmetry_equiv_pos_as_xyz
  1  'x, y, z'
loop_
 _atom_site_type_symbol
 _atom_site_label
 _atom_site_symmetry_multiplicity
 _atom_site_fract_x
 _atom_site_fract_y
 _atom_site_fract_z
 _atom_site_occupancy
  W  W0  1  0.498759  0.998685  0.998973  1
  W  W1  1  0.498477  0.998461  0.501387  1
  W  W2  1  0.999661  0.998376  0.997947  1
  W  W3  1  0.724610  0.221762  0.749558  1
  W  W4  1  0.246457  0.782030  0.250449  1
  W  W5  1  0.999156  0.998463  0.501644  1
  Se  Se6  1  0.749986  0.353603  0.030400  1
  Se  Se7  1  0.250524  0.642585  0.971089  1
  Se  Se8  1  0.748562  0.353702  0.468207  1
  Se  Se9  1  0.250499  0.642409  0.530266  1
  Cl  Cl10  1  0.287995  0.223767  0.749616  1
  Cl  Cl11  1  0.752577  0.803463  0.250338  1
  O  O12  1  0.251662  0.954365  0.117338  1
  O  O13  1  0.249979  0.610269  0.116812  1
  O  O14  1  0.749552  0.390608  0.613243  1
  O  O15  1  0.515003  0.229051  0.048272  1
  O  O16  1  0.485186  0.767093  0.548911  1
  O  O17  1  0.015277  0.766865  0.548894  1
  O  O18  1  0.745107  0.044459  0.880402  1
  O  O19  1  0.985423  0.228701  0.047320  1
  O  O20  1  0.983967  0.228770  0.451494  1
  O  O21  1  0.015099  0.766771  0.951563  1
  O  O22  1  0.252164  0.954417  0.382818  1
  O  O23  1  0.745020  0.044272  0.619539  1
  O  O24  1  0.485007  0.767431  0.952190  1
  O  O25  1  0.513585  0.229017  0.451448  1
  O  O26  1  0.749868  0.390485  0.885225  1
  O  O27  1  0.250837  0.610124  0.384654  1
