# generated using pymatgen
data_BaAlFeCuO5
_symmetry_space_group_name_H-M   'P 1'
_cell_length_a   3.72858569
_cell_length_b   3.72858569
_cell_length_c   8.15671570
_cell_angle_alpha   90.00000000
_cell_angle_beta   90.00000000
_cell_angle_gamma   90.00000000
_symmetry_Int_Tables_number   1
_chemical_formula_structural   BaAlFeCuO5
_chemical_formula_sum   'Ba1 Al1 Fe1 Cu1 O5'
_cell_volume   113.39752669
_cell_formula_units_Z   1
loop_
 _symmetry_equiv_pos_site_id
 _symmetry_equiv_pos_as_xyz
  1  'x, y, z'
loop_
 _atom_site_type_symbol
 _atom_site_label
 _atom_site_symmetry_multiplicity
 _atom_site_fract_x
 _atom_site_fract_y
 _atom_site_fract_z
 _atom_site_occupancy
  Ba  Ba0  1  0.000000  -0.000000  0.027931  1
  Al  Al1  1  0.000000  -0.000000  0.475137  1
  Fe  Fe2  1  0.499999  0.499999  0.690891  1
  Cu  Cu3  1  0.499999  0.499999  0.280011  1
  O  O4  1  0.000000  0.499999  0.600929  1
  O  O5  1  0.499999  -0.000000  0.600929  1
  O  O6  1  0.000000  0.499999  0.295945  1
  O  O7  1  0.499999  0.000000  0.295945  1
  O  O8  1  0.499999  0.499999  0.920199  1
