# generated using pymatgen
data_AgPO4
_symmetry_space_group_name_H-M   'P 1'
_cell_length_a   5.10791581
_cell_length_b   9.74469847
_cell_length_c   15.41864577
_cell_angle_alpha   79.54061602
_cell_angle_beta   80.49378333
_cell_angle_gamma   74.76312447
_symmetry_Int_Tables_number   1
_chemical_formula_structural   AgPO4
_chemical_formula_sum   'Ag8 P8 O32'
_cell_volume   722.58236767
_cell_formula_units_Z   8
loop_
 _symmetry_equiv_pos_site_id
 _symmetry_equiv_pos_as_xyz
  1  'x, y, z'
loop_
 _atom_site_type_symbol
 _atom_site_label
 _atom_site_symmetry_multiplicity
 _atom_site_fract_x
 _atom_site_fract_y
 _atom_site_fract_z
 _atom_site_occupancy
  Ag  Ag0  1  0.153774  0.229726  0.972626  1
  Ag  Ag1  1  0.347257  0.268077  0.527687  1
  Ag  Ag2  1  0.847938  0.770962  0.027121  1
  Ag  Ag3  1  0.498655  0.499171  0.998521  1
  Ag  Ag4  1  0.650553  0.731789  0.473676  1
  Ag  Ag5  1  0.669968  0.748798  0.250117  1
  Ag  Ag6  1  0.335259  0.251995  0.749668  1
  Ag  Ag7  1  0.997182  0.000053  0.499438  1
  P  P8  1  0.049940  0.567226  0.867302  1
  P  P9  1  0.777466  0.412609  0.616833  1
  P  P10  1  0.945174  0.434094  0.131893  1
  P  P11  1  0.191438  0.912257  0.117436  1
  P  P12  1  0.513777  0.066991  0.366589  1
  P  P13  1  0.484651  0.934561  0.632702  1
  P  P14  1  0.221866  0.587270  0.384504  1
  P  P15  1  0.808478  0.089698  0.882485  1
  O  O16  1  0.700035  0.392151  0.104284  1
  O  O17  1  0.856629  0.927368  0.917431  1
  O  O18  1  0.799669  0.892572  0.605878  1
  O  O19  1  0.770098  0.311844  0.552156  1
  O  O20  1  0.192849  0.387873  0.056388  1
  O  O21  1  0.588827  0.397983  0.705802  1
  O  O22  1  0.637219  0.192886  0.946273  1
  O  O23  1  0.897401  0.877242  0.135575  1
  O  O24  1  0.230147  0.686770  0.450121  1
  O  O25  1  0.697915  0.575710  0.583702  1
  O  O26  1  0.894141  0.600607  0.131317  1
  O  O27  1  0.589923  0.134755  0.273915  1
  O  O28  1  0.148971  0.074364  0.082896  1
  O  O29  1  0.087868  0.372850  0.636253  1
  O  O30  1  0.292714  0.611796  0.894540  1
  O  O31  1  0.106831  0.400151  0.868210  1
  O  O32  1  0.989530  0.634984  0.775158  1
  O  O33  1  0.361895  0.809885  0.052831  1
  O  O34  1  0.369498  0.100779  0.633007  1
  O  O35  1  0.406149  0.864541  0.725155  1
  O  O36  1  0.910289  0.625651  0.365926  1
  O  O37  1  0.364443  0.891894  0.554617  1
  O  O38  1  0.100912  0.126236  0.862699  1
  O  O39  1  0.306133  0.893185  0.206596  1
  O  O40  1  0.303880  0.424326  0.417568  1
  O  O41  1  0.198043  0.107130  0.393436  1
  O  O42  1  0.997168  0.364794  0.224494  1
  O  O43  1  0.634004  0.115491  0.442904  1
  O  O44  1  0.805746  0.610896  0.944465  1
  O  O45  1  0.689902  0.104823  0.794244  1
  O  O46  1  0.404895  0.605748  0.294851  1
  O  O47  1  0.637235  0.900703  0.368360  1
